2019-06-11 15:17:14,234  INFO Gbl:63 JVM: 1.8.0_162; Oracle Corporation; mixed mode; 64-bit
2019-06-11 15:17:14,234  INFO Gbl:67 OS: Mac OS X; 10.14.4; x86_64
2019-06-11 15:17:14,234  INFO Gbl:70 CPU cores: 4
2019-06-11 15:17:14,234  INFO Gbl:71 max. Memory: 1820.5MB (1908932608B)
2019-06-11 15:17:14,234  INFO Gbl:109 MATSim-Build: r92f5a963d96c1378d104c07359ace3469f91ad77 (2019-04-10 11:10:17)
2019-06-11 15:17:14,236  INFO ControlerListenerManagerImpl:107 calling notifyStartup on org.matsim.counts.CountsControlerListener
2019-06-11 15:17:14,236  INFO ControlerListenerManagerImpl:107 calling notifyStartup on org.matsim.analysis.ModeStatsControlerListener
2019-06-11 15:17:14,236 DEBUG NetworkRoutingProvider:75 requesting network routing module with routingMode=car;	mode=car
2019-06-11 15:17:14,246  INFO ControlerListenerManagerImpl:107 calling notifyStartup on org.matsim.analysis.ScoreStatsControlerListener
2019-06-11 15:17:14,247  INFO ControlerListenerManagerImpl:110 all ControlerStartupListeners called.
2019-06-11 15:17:14,247  INFO ControlerUtils:58 config dump before iterations start
2019-06-11 15:17:14,268  INFO ControlerUtils:62 

<?xml version="1.0" encoding="UTF-8"?>
<!DOCTYPE config SYSTEM "http://www.matsim.org/files/dtd/config_v2.dtd">
<config>
	<module name="JDEQSim" >
		<param name="carSize" value="7.5" />
		<param name="endTime" value="undefined" />
		<param name="flowCapacityFactor" value="1.0" />
		<param name="gapTravelSpeed" value="15.0" />
		<param name="minimumInFlowCapacity" value="1800.0" />
		<param name="squeezeTime" value="1800.0" />
		<param name="storageCapacityFactor" value="1.0" />
	</module>
	<module name="TimeAllocationMutator" >
		<!-- Default:true; Defines whether time mutation changes an activity's duration. -->
		<param name="mutationAffectsDuration" value="true" />
		<!-- Default:1800.0; Defines how many seconds a time mutation can maximally shift a time. -->
		<param name="mutationRange" value="1800.0" />
		<!-- false; Use individual settings for each subpopulation. If enabled but no settings are found, regular settings are uses as fallback. -->
		<param name="useIndividualSettingsForSubpopulations" value="false" />
	</module>
	<module name="changeMode" >
		<!-- Defines whether car availability is considered be considered or not. An agent has no car only if it has no license, or never access to a car. Default: true -->
		<param name="ignoreCarAvailability" value="true" />
		<!-- Defines the mode switch behavior. Possible values [fromAllModesToSpecifiedModes, fromSpecifiedModesToSpecifiedModes] Default: fromSpecifiedModesToSpecifiedModes. -->
		<param name="modeSwitchBehavior" value="fromSpecifiedModesToSpecifiedModes" />
		<!-- Defines all the modes available, including chain-based modes, seperated by commas -->
		<param name="modes" value="car,pt" />
	</module>
	<module name="controler" >
		<!-- Sets whether graphs showing some analyses should automatically be generated during the simulation. The generation of graphs usually takes a small amount of time that does not have any weight in big simulations, but add a significant overhead in smaller runs or in test cases where the graphical output is not even requested. -->
		<param name="createGraphs" value="true" />
		<!-- true if at the end of a run, plans, network, config etc should be dumped to a file -->
		<param name="dumpDataAtEnd" value="true" />
		<!-- Default=false. If enabled, the router takes travel times needed for turning moves into account. Cannot be used if the (Fast)AStarLandmarks routing or TravelTimeCalculator.separateModes is enabled. -->
		<param name="enableLinkToLinkRouting" value="false" />
		<!-- Default=xml; Specifies the file format for writing events. Currently supported: xml.
		Multiple values can be specified separated by commas (','). -->
		<param name="eventsFileFormat" value="xml" />
		<!-- Default=0;  -->
		<param name="firstIteration" value="0" />
		<!-- Default=1000;  -->
		<param name="lastIteration" value="10" />
		<!-- Defines which mobility simulation will be used. Currently supported: qsim JDEQSim 
		Depending on the chosen mobsim, you'll have to add additional config modules to configure the corresponding mobsim.
		For 'qsim', add a module 'qsim' to the config. -->
		<param name="mobsim" value="qsim" />
		<param name="outputDirectory" value="./scenarios/equil/output" />
		<!-- Possible values: failIfDirectoryExists, overwriteExistingFiles, deleteDirectoryIfExists -->
		<param name="overwriteFiles" value="failIfDirectoryExists" />
		<!-- The type of routing (least cost path) algorithm used, may have the values: Dijkstra, FastDijkstra, AStarLandmarks or FastAStarLandmarks -->
		<param name="routingAlgorithmType" value="AStarLandmarks" />
		<!-- An identifier for the current run which is used as prefix for output files and mentioned in output xml files etc. -->
		<param name="runId" value="null" />
		<!-- Comma-separated list of visualizer output file formats. `transims', `googleearth', and `otfvis'. -->
		<param name="snapshotFormat" value="" />
		<!-- iterationNumber % writeEventsInterval == 0 defines in which iterations events are written to a file. `0' disables events writing completely. -->
		<param name="writeEventsInterval" value="10" />
		<!-- iterationNumber % writePlansInterval == 0 defines (hopefully) in which iterations plans are written to a file. `0' disables plans writing completely.  Some plans in early iterations are always written -->
		<param name="writePlansInterval" value="10" />
		<!-- iterationNumber % writeSnapshotsInterval == 0 defines in which iterations snapshots are written to a file. `0' disables snapshots writing completely -->
		<param name="writeSnapshotsInterval" value="1" />
	</module>
	<module name="counts" >
		<!-- Transport modes that will be respected for the counts comparison. 'car' is default, which includes also bussed from the pt simulation module. Use this parameter in combination with 'filterModes' = true! -->
		<param name="analyzedModes" value="car" />
		<!-- Specifies over how many iterations the link volumes should be averaged that are used for the counts comparison. Use 1 or 0 to only use the link volumes of a single iteration. This values cannot be larger than the value specified for writeCountsInterval -->
		<param name="averageCountsOverIterations" value="5" />
		<!-- factor by which to re-scale the simulated values.  necessary when simulation runs with something different from 100%.  needs to be adapted manually -->
		<param name="countsScaleFactor" value="1.0" />
		<!-- distance to distanceFilterCenterNode to include counting stations. The unit of distance is the Euclidean distance implied by the coordinate system -->
		<param name="distanceFilter" value="null" />
		<!-- node id for center node of distance filter -->
		<param name="distanceFilterCenterNode" value="null" />
		<!-- If true, link counts from legs performed on modes not included in the 'analyzedModes' parameter are ignored. -->
		<param name="filterModes" value="false" />
		<!-- The Coordinates Reference System in which the coordinates are expressed in the input file. At import, the coordinates will be converted to the coordinate system defined in "global", and willbe converted back at export. If not specified, no conversion happens. -->
		<param name="inputCRS" value="null" />
		<!-- input file name to counts package -->
		<param name="inputCountsFile" value="null" />
		<!-- possible values: `html', `kml', `txt', `all' -->
		<param name="outputformat" value="txt" />
		<!-- Specifies how often the counts comparison should be calculated and written. -->
		<param name="writeCountsInterval" value="10" />
	</module>
	<module name="facilities" >
		<!-- This defines how facilities should be created. Possible values: none fromFile setInScenario onePerActivityLinkInPlansFile onePerActivityLocationInPlansFile  -->
		<param name="facilitiesSource" value="none" />
		<!-- A prefix to be used for auto-generated IDs. -->
		<param name="idPrefix" value="autogen_" />
		<!-- The Coordinates Reference System in which the coordinates are expressed in the input file. At import, the coordinates will be converted to the coordinate system defined in "global", and willbe converted back at export. If not specified, no conversion happens. -->
		<param name="inputCRS" value="null" />
		<param name="inputFacilitiesFile" value="null" />
		<param name="inputFacilityAttributesFile" value="null" />
	</module>
	<module name="global" >
		<param name="coordinateSystem" value="Atlantis" />
		<param name="insistingOnDeprecatedConfigVersion" value="true" />
		<!-- "global" number of threads.  This number is used, e.g., for replanning, but NOT in the mobsim.  This can typically be set to as many cores as you have available, or possibly even slightly more. -->
		<param name="numberOfThreads" value="2" />
		<param name="randomSeed" value="4711" />
	</module>
	<module name="households" >
		<param name="inputFile" value="null" />
		<param name="inputHouseholdAttributesFile" value="null" />
	</module>
	<module name="linkStats" >
		<!-- Specifies over how many iterations the link volumes should be averaged that are used for the link statistics. Use 1 or 0 to only use the link volumes of a single iteration. This values cannot be larger than the value specified for writeLinkStatsInterval -->
		<param name="averageLinkStatsOverIterations" value="5" />
		<!-- Specifies how often the link stats should be calculated and written. Use 0 to disable the generation of link stats. -->
		<param name="writeLinkStatsInterval" value="10" />
	</module>
	<module name="network" >
		<!-- The Coordinates Reference System in which the coordinates are expressed in the input file. At import, the coordinates will be converted to the coordinate system defined in "global", and willbe converted back at export. If not specified, no conversion happens. -->
		<param name="inputCRS" value="null" />
		<param name="inputChangeEventsFile" value="null" />
		<param name="inputNetworkFile" value="network.xml" />
		<param name="laneDefinitionsFile" value="null" />
		<param name="timeVariantNetwork" value="false" />
	</module>
	<module name="parallelEventHandling" >
		<!-- Estimated number of events during mobsim run. An optional optimization hint for the framework. -->
		<param name="estimatedNumberOfEvents" value="null" />
		<!-- Number of threads for parallel events handler. _null_ means the framework decides by itself. 0 is currently not possible. -->
		<param name="numberOfThreads" value="null" />
		<!-- If enabled, each event handler is assigned to its own thread. Note that enabling this feature disabled the numberOfThreads option! This feature is still experimental! -->
		<param name="oneThreadPerHandler" value="false" />
		<!-- If enabled, it is ensured that all events that are created during a time step of the mobility simulation are processed before the next time step is simulated. E.g. neccessary when within-day replanning is used. -->
		<param name="synchronizeOnSimSteps" value="true" />
	</module>
	<module name="planCalcScore" >
		<!-- logit model scale parameter. default: 1.  Has name and default value for historical reasons (see Bryan Raney's phd thesis). -->
		<param name="BrainExpBeta" value="2.0" />
		<param name="PathSizeLogitBeta" value="1.0" />
		<!-- fraction of iterations at which MSA score averaging is started. The matsim theory department suggests to use this together with switching off choice set innovation (where a similar switch exists), but it has not been tested yet. -->
		<param name="fractionOfIterationsToStartScoreMSA" value="null" />
		<!-- new_score = (1-learningRate)*old_score + learningRate * score_from_mobsim.  learning rates close to zero emulate score averaging, but slow down initial convergence -->
		<param name="learningRate" value="1.0" />
		<!-- There used to be a plateau between duration=0 and duration=zeroUtilityDuration. This caused durations to evolve to zero once they were below zeroUtilityDuration, causing problems.  Only use this switch if you need to be backwards compatible with some old results.  (changed nov'13) -->
		<param name="usingOldScoringBelowZeroUtilityDuration" value="false" />
		<!-- write a plans file in each iteration directory which contains what each agent actually did, and the score it received. -->
		<param name="writeExperiencedPlans" value="false" />
		<parameterset type="scoringParameters" >
			<param name="earlyDeparture" value="-0.0" />
			<param name="lateArrival" value="-18.0" />
			<param name="marginalUtilityOfMoney" value="1.0" />
			<param name="performing" value="6.0" />
			<param name="subpopulation" value="null" />
			<param name="utilityOfLineSwitch" value="-1.0" />
			<param name="waiting" value="-0.0" />
			<param name="waitingPt" value="-6.0" />
			<parameterset type="activityParams" >
				<param name="activityType" value="dummy" />
				<param name="closingTime" value="undefined" />
				<param name="earliestEndTime" value="undefined" />
				<param name="latestStartTime" value="undefined" />
				<param name="minimalDuration" value="undefined" />
				<param name="openingTime" value="undefined" />
				<param name="priority" value="1.0" />
				<param name="scoringThisActivityAtAll" value="true" />
				<!-- typical duration of activity.  needs to be defined and non-zero.  in sec. -->
				<param name="typicalDuration" value="02:00:00" />
				<!-- method to compute score at typical duration.  Options: | uniform | relative | Use uniform for backwards compatibility (all activities same score; higher proba to drop long acts). -->
				<param name="typicalDurationScoreComputation" value="relative" />
			</parameterset>
			<parameterset type="activityParams" >
				<param name="activityType" value="car interaction" />
				<param name="closingTime" value="undefined" />
				<param name="earliestEndTime" value="undefined" />
				<param name="latestStartTime" value="undefined" />
				<param name="minimalDuration" value="undefined" />
				<param name="openingTime" value="undefined" />
				<param name="priority" value="1.0" />
				<param name="scoringThisActivityAtAll" value="false" />
				<param name="typicalDuration" value="undefined" />
				<param name="typicalDurationScoreComputation" value="relative" />
			</parameterset>
			<parameterset type="activityParams" >
				<param name="activityType" value="pt interaction" />
				<param name="closingTime" value="undefined" />
				<param name="earliestEndTime" value="undefined" />
				<param name="latestStartTime" value="undefined" />
				<param name="minimalDuration" value="undefined" />
				<param name="openingTime" value="undefined" />
				<param name="priority" value="1.0" />
				<param name="scoringThisActivityAtAll" value="false" />
				<param name="typicalDuration" value="undefined" />
				<param name="typicalDurationScoreComputation" value="relative" />
			</parameterset>
			<parameterset type="activityParams" >
				<param name="activityType" value="bike interaction" />
				<param name="closingTime" value="undefined" />
				<param name="earliestEndTime" value="undefined" />
				<param name="latestStartTime" value="undefined" />
				<param name="minimalDuration" value="undefined" />
				<param name="openingTime" value="undefined" />
				<param name="priority" value="1.0" />
				<param name="scoringThisActivityAtAll" value="false" />
				<param name="typicalDuration" value="undefined" />
				<param name="typicalDurationScoreComputation" value="relative" />
			</parameterset>
			<parameterset type="activityParams" >
				<param name="activityType" value="other interaction" />
				<param name="closingTime" value="undefined" />
				<param name="earliestEndTime" value="undefined" />
				<param name="latestStartTime" value="undefined" />
				<param name="minimalDuration" value="undefined" />
				<param name="openingTime" value="undefined" />
				<param name="priority" value="1.0" />
				<param name="scoringThisActivityAtAll" value="false" />
				<param name="typicalDuration" value="undefined" />
				<param name="typicalDurationScoreComputation" value="relative" />
			</parameterset>
			<parameterset type="activityParams" >
				<param name="activityType" value="walk interaction" />
				<param name="closingTime" value="undefined" />
				<param name="earliestEndTime" value="undefined" />
				<param name="latestStartTime" value="undefined" />
				<param name="minimalDuration" value="undefined" />
				<param name="openingTime" value="undefined" />
				<param name="priority" value="1.0" />
				<param name="scoringThisActivityAtAll" value="false" />
				<param name="typicalDuration" value="undefined" />
				<param name="typicalDurationScoreComputation" value="relative" />
			</parameterset>
			<parameterset type="activityParams" >
				<param name="activityType" value="h" />
				<param name="closingTime" value="undefined" />
				<param name="earliestEndTime" value="undefined" />
				<param name="latestStartTime" value="undefined" />
				<param name="minimalDuration" value="08:00:00" />
				<param name="openingTime" value="undefined" />
				<param name="priority" value="1.0" />
				<param name="scoringThisActivityAtAll" value="true" />
				<param name="typicalDuration" value="12:00:00" />
				<param name="typicalDurationScoreComputation" value="relative" />
			</parameterset>
			<parameterset type="activityParams" >
				<param name="activityType" value="w" />
				<param name="closingTime" value="18:00:00" />
				<param name="earliestEndTime" value="undefined" />
				<param name="latestStartTime" value="09:00:00" />
				<param name="minimalDuration" value="06:00:00" />
				<param name="openingTime" value="07:00:00" />
				<param name="priority" value="1.0" />
				<param name="scoringThisActivityAtAll" value="true" />
				<param name="typicalDuration" value="08:00:00" />
				<param name="typicalDurationScoreComputation" value="relative" />
			</parameterset>
			<parameterset type="modeParams" >
				<!-- [utils] alternative-specific constant.  Normally per trip, but that is probably buggy for multi-leg trips. -->
				<param name="constant" value="0.0" />
				<!-- [money] daily monetary constant. default=0 to be backwards compatible -->
				<param name="dailyMonetaryConstant" value="0.0" />
				<!-- [utils] daily utility constant. default=0 to be backwards compatible -->
				<param name="dailyUtilityConstant" value="0.0" />
				<!-- [utils/m] utility of traveling (e.g. walking or driving) per m, normally negative.  this is on top of the time (dis)utility. -->
				<param name="marginalUtilityOfDistance_util_m" value="0.0" />
				<!-- [utils/hr] additional marginal utility of traveling.  normally negative.  this comes on top of the opportunity cost of time -->
				<param name="marginalUtilityOfTraveling_util_hr" value="-6.0" />
				<param name="mode" value="car" />
				<!-- [unit_of_money/m] conversion of distance into money. Normally negative. -->
				<param name="monetaryDistanceRate" value="0.0" />
			</parameterset>
			<parameterset type="modeParams" >
				<param name="constant" value="0.0" />
				<param name="dailyMonetaryConstant" value="0.0" />
				<param name="dailyUtilityConstant" value="0.0" />
				<param name="marginalUtilityOfDistance_util_m" value="0.0" />
				<param name="marginalUtilityOfTraveling_util_hr" value="-6.0" />
				<param name="mode" value="pt" />
				<param name="monetaryDistanceRate" value="0.0" />
			</parameterset>
			<parameterset type="modeParams" >
				<param name="constant" value="0.0" />
				<param name="dailyMonetaryConstant" value="0.0" />
				<param name="dailyUtilityConstant" value="0.0" />
				<param name="marginalUtilityOfDistance_util_m" value="0.0" />
				<param name="marginalUtilityOfTraveling_util_hr" value="-6.0" />
				<param name="mode" value="walk" />
				<param name="monetaryDistanceRate" value="0.0" />
			</parameterset>
			<parameterset type="modeParams" >
				<param name="constant" value="0.0" />
				<param name="dailyMonetaryConstant" value="0.0" />
				<param name="dailyUtilityConstant" value="0.0" />
				<param name="marginalUtilityOfDistance_util_m" value="0.0" />
				<param name="marginalUtilityOfTraveling_util_hr" value="-6.0" />
				<param name="mode" value="bike" />
				<param name="monetaryDistanceRate" value="0.0" />
			</parameterset>
			<parameterset type="modeParams" >
				<param name="constant" value="0.0" />
				<param name="dailyMonetaryConstant" value="0.0" />
				<param name="dailyUtilityConstant" value="0.0" />
				<param name="marginalUtilityOfDistance_util_m" value="0.0" />
				<param name="marginalUtilityOfTraveling_util_hr" value="-6.0" />
				<param name="mode" value="ride" />
				<param name="monetaryDistanceRate" value="0.0" />
			</parameterset>
			<parameterset type="modeParams" >
				<param name="constant" value="0.0" />
				<param name="dailyMonetaryConstant" value="0.0" />
				<param name="dailyUtilityConstant" value="0.0" />
				<param name="marginalUtilityOfDistance_util_m" value="0.0" />
				<param name="marginalUtilityOfTraveling_util_hr" value="-6.0" />
				<param name="mode" value="other" />
				<param name="monetaryDistanceRate" value="0.0" />
			</parameterset>
		</parameterset>
	</module>
	<module name="plans" >
		<!-- String: minOfDurationAndEndTime tryEndTimeThenDuration endTimeOnly. Anything besides minOfDurationAndEndTime will internally use a different (simpler) version of the TimeAllocationMutator. -->
		<param name="activityDurationInterpretation" value="tryEndTimeThenDuration" />
		<!-- The Coordinates Reference System in which the coordinates are expressed in the input file. At import, the coordinates will be converted to the coordinate system defined in "global", and willbe converted back at export. If not specified, no conversion happens. -->
		<param name="inputCRS" value="null" />
		<param name="inputPersonAttributesFile" value="null" />
		<param name="inputPlansFile" value="plans100.xml" />
		<!-- Defines how routes are stored in memory. Currently supported: LinkNetworkRoute, CompressedNetworkRoute. -->
		<param name="networkRouteType" value="LinkNetworkRoute" />
		<!-- (not tested) will remove plan attributes that are presumably not used, such as activityStartTime. default=false. Use with Caution! -->
		<param name="removingUnnecessaryPlanAttributes" value="false" />
		<!-- Name of the (Object)Attribute defining the subpopulation to which pertains a Person (as freight, through traffic, etc.). The attribute must be of String type.  Change away from default only in desperate situations. -->
		<param name="subpopulationAttributeName" value="subpopulation" />
	</module>
	<module name="planscalcroute" >
		<!-- All the modes for which the router is supposed to generate network routes (like car) -->
		<param name="networkModes" value="car" />
		<parameterset type="teleportedModeParameters" >
			<param name="beelineDistanceFactor" value="1.3" />
			<param name="mode" value="bike" />
			<!-- Free-speed factor for a teleported mode. Travel time = teleportedModeFreespeedFactor * <freespeed car travel time>. Insert a line like this for every such mode. Please do not set teleportedModeFreespeedFactor as well as teleportedModeSpeed for the same mode, but if you do, +teleportedModeFreespeedFactor wins over teleportedModeSpeed. -->
			<param name="teleportedModeFreespeedFactor" value="null" />
			<!-- Speed for a teleported mode. Travel time = (<beeline distance> * beelineDistanceFactor) / teleportedModeSpeed. Insert a line like this for every such mode. -->
			<param name="teleportedModeSpeed" value="4.166666666666667" />
		</parameterset>
		<parameterset type="teleportedModeParameters" >
			<param name="beelineDistanceFactor" value="1.3" />
			<param name="mode" value="walk" />
			<param name="teleportedModeFreespeedFactor" value="null" />
			<param name="teleportedModeSpeed" value="0.8333333333333333" />
		</parameterset>
		<parameterset type="teleportedModeParameters" >
			<param name="beelineDistanceFactor" value="1.3" />
			<param name="mode" value="access_walk" />
			<param name="teleportedModeFreespeedFactor" value="null" />
			<param name="teleportedModeSpeed" value="0.8333333333333333" />
		</parameterset>
		<parameterset type="teleportedModeParameters" >
			<param name="beelineDistanceFactor" value="1.3" />
			<param name="mode" value="egress_walk" />
			<param name="teleportedModeFreespeedFactor" value="null" />
			<param name="teleportedModeSpeed" value="0.8333333333333333" />
		</parameterset>
		<parameterset type="teleportedModeParameters" >
			<param name="beelineDistanceFactor" value="1.3" />
			<param name="mode" value="undefined" />
			<param name="teleportedModeFreespeedFactor" value="null" />
			<param name="teleportedModeSpeed" value="13.88888888888889" />
		</parameterset>
		<parameterset type="teleportedModeParameters" >
			<param name="beelineDistanceFactor" value="1.3" />
			<param name="mode" value="ride" />
			<param name="teleportedModeFreespeedFactor" value="1.0" />
			<param name="teleportedModeSpeed" value="null" />
		</parameterset>
		<parameterset type="teleportedModeParameters" >
			<param name="beelineDistanceFactor" value="1.3" />
			<param name="mode" value="pt" />
			<param name="teleportedModeFreespeedFactor" value="2.0" />
			<param name="teleportedModeSpeed" value="null" />
		</parameterset>
	</module>
	<module name="ptCounts" >
		<!-- factor by which to re-scale the simulated values.  necessary when simulation runs with something different from 100%.  needs to be adapted manually -->
		<param name="countsScaleFactor" value="1.0" />
		<!-- distance to distanceFilterCenterNode to include counting stations. The unit of distance is the Euclidean distance implied by the coordinate system -->
		<param name="distanceFilter" value="null" />
		<!-- node id for center node of distance filter -->
		<param name="distanceFilterCenterNode" value="null" />
		<!-- input file containing the alighting (getting off) counts for pt -->
		<param name="inputAlightCountsFile" value="null" />
		<!-- input file containing the boarding (getting on) counts for pt -->
		<param name="inputBoardCountsFile" value="null" />
		<!-- input file containing the occupancy counts for pt -->
		<param name="inputOccupancyCountsFile" value="null" />
		<!-- possible values: `html', `kml', `txt', `all' -->
		<param name="outputformat" value="null" />
		<!-- every how many iterations (starting with 0) counts comparisons are generated -->
		<param name="ptCountsInterval" value="10" />
	</module>
	<module name="qsim" >
		<param name="endTime" value="00:00:00" />
		<param name="flowCapacityFactor" value="1.0" />
		<!-- decides if waiting vehicles enter the network after or before the already driving vehicles were moved. Default: false -->
		<param name="insertingWaitingVehiclesBeforeDrivingVehicles" value="true" />
		<!-- If link dynamics is set as SeepageQ, set to false if all seep modes should perform seepage. Default is true (better option). -->
		<param name="isRestrictingSeepage" value="true" />
		<!-- If link dynamics is set as SeepageQ, set to true if seep mode do not consumes any space on the link. Default is false. -->
		<param name="isSeepModeStorageFree" value="false" />
		<!-- default: FIFO; options: FIFO PassingQ SeepageQ -->
		<param name="linkDynamics" value="FIFO" />
		<!-- The (initial) width of the links of the network. Use positive floating point values. This is used only for visualisation. -->
		<param name="linkWidth" value="30.0" />
		<!-- [comma-separated list] Defines which modes are congested modes. Technically, these are the modes that the departure handler of the netsimengine handles.  Effective cell size, effective lane width, flow capacity factor, and storage capacity factor need to be set with diligence.  Need to be vehicular modes to make sense. -->
		<param name="mainMode" value="car" />
		<!-- Shortens a link in the visualization, i.e. its start and end point are moved into towards the center. Does not affect traffic flow.  -->
		<param name="nodeOffset" value="0.0" />
		<!-- Number of threads used for the QSim.  Note that this setting is independent from the "global" threads setting.  In contrast to earlier versions, the non-parallel special version is no longer there. -->
		<param name="numberOfThreads" value="1" />
		<!-- Boolean. `true': stuck vehicles are removed, aborting the plan; `false': stuck vehicles are forced into the next link. `false' is probably the better choice. -->
		<param name="removeStuckVehicles" value="false" />
		<!-- If link dynamics is set as SeepageQ, set a seep mode. Default is bike. -->
		<param name="seepMode" value="bike" />
		<!-- Possible values: minOfEndtimeAndMobsimFinished, onlyUseEndtime -->
		<param name="simEndtimeInterpretation" value="null" />
		<!-- Options: maxOfStarttimeAndEarliestActivityEnd onlyUseStarttime  -->
		<param name="simStarttimeInterpretation" value="maxOfStarttimeAndEarliestActivityEnd" />
		<!-- snapshotStyle. One of: equiDist queue withHoles withHolesAndShowHoles kinematicWaves  -->
		<param name="snapshotStyle" value="equiDist" />
		<param name="snapshotperiod" value="00:00:00" />
		<param name="startTime" value="00:00:00" />
		<param name="storageCapacityFactor" value="1.0" />
		<!-- time in seconds.  Time after which the frontmost vehicle on a link is called `stuck' if it does not move. -->
		<param name="stuckTime" value="10.0" />
		<param name="timeStepSize" value="00:00:01" />
		<!-- options: queue withHoles kinematicWaves  -->
		<param name="trafficDynamics" value="queue" />
		<!-- Set this parameter to true if lanes should be used, false if not. -->
		<param name="useLanes" value="false" />
		<!-- If a route does not reference a vehicle, agents will use the vehicle with the same id as their own. -->
		<param name="usePersonIdForMissingVehicleId" value="true" />
		<!-- If false, the qsim accumulates fractional flows up to one flow unit in every time step.  If true, flows are updated only if an agent wants to enter the link or an agent is added to buffer. Default is true. -->
		<param name="usingFastCapacityUpdate" value="true" />
		<!-- if the qsim should use as many runners as there are threads (Christoph's dissertation version) or more of them, together with a thread pool (seems to be faster in some situations, but is not tested). -->
		<param name="usingThreadpool" value="true" />
		<!-- Defines what happens if an agent wants to depart, but the specified vehicle is not available. One of: teleport wait exception  -->
		<param name="vehicleBehavior" value="teleport" />
		<!-- If vehicles should all be the same default vehicle, or come from the vehicles file, or something else.  Possible values:  defaultVehicle modeVehicleTypesFromVehiclesData fromVehiclesData -->
		<param name="vehiclesSource" value="defaultVehicle" />
	</module>
	<module name="strategy" >
		<!-- the external executable will be called with a config file as argument.  This is the pathname to a possible skeleton config, to which additional information will be added.  Can be null. -->
		<param name="ExternalExeConfigTemplate" value="null" />
		<!-- time out value (in seconds) after which matsim will consider the external strategy as failed -->
		<param name="ExternalExeTimeOut" value="3600" />
		<!-- root directory for temporary files generated by the external executable. Provided as a service; I don't think this is used by MATSim. -->
		<param name="ExternalExeTmpFileRootDir" value="null" />
		<!-- fraction of iterations where innovative strategies are switched off.  Something like 0.8 should be good.  E.g. if you run from iteration 400 to iteration 500, innovation is switched off at iteration 480 -->
		<param name="fractionOfIterationsToDisableInnovation" value="Infinity" />
		<!-- maximum number of plans per agent.  ``0'' means ``infinity''.  Currently (2010), ``5'' is a good number -->
		<param name="maxAgentPlanMemorySize" value="5" />
		<!-- strategyName of PlanSelector for plans removal.  Possible defaults: WorstPlanSelector SelectRandom SelectExpBetaForRemoval ChangeExpBetaForRemoval PathSizeLogitSelectorForRemoval . The current default, WorstPlanSelector is not a good choice from a discrete choice theoretical perspective. Alternatives, however, have not been systematically tested. kai, feb'12 -->
		<param name="planSelectorForRemoval" value="WorstPlanSelector" />
		<parameterset type="strategysettings" >
			<!-- iteration after which strategy will be disabled.  most useful for ``innovative'' strategies (new routes, new times, ...). Normally, better use fractionOfIterationsToDisableInnovation -->
			<param name="disableAfterIteration" value="-1" />
			<!-- path to external executable (if applicable) -->
			<param name="executionPath" value="null" />
			<!-- strategyName of strategy.  Possible default names: SelectRandomBestScoreKeepLastSelectedChangeExpBetaSelectExpBetaSelectPathSizeLogit (selectors), ReRouteTimeAllocationMutatorTimeAllocationMutator_ReRouteChangeSingleTripModeChangeTripModeSubtourModeChoice (innovative strategies). -->
			<param name="strategyName" value="BestScore" />
			<!-- subpopulation to which the strategy applies. "null" refers to the default population, that is, the set of persons for which no explicit subpopulation is defined (ie no subpopulation attribute) -->
			<param name="subpopulation" value="null" />
			<!-- weight of a strategy: for each agent, a strategy will be selected with a probability proportional to its weight -->
			<param name="weight" value="0.9" />
		</parameterset>
		<parameterset type="strategysettings" >
			<param name="disableAfterIteration" value="-1" />
			<param name="executionPath" value="null" />
			<param name="strategyName" value="ReRoute" />
			<param name="subpopulation" value="null" />
			<param name="weight" value="0.1" />
		</parameterset>
	</module>
	<module name="subtourModeChoice" >
		<!-- Only for backwards compatibility.  Defines if only trips from modes list should change mode, or all trips.  Options: fromAllModesToSpecifiedModes fromSpecifiedModesToSpecifiedModes  -->
		<param name="behavior" value="fromSpecifiedModesToSpecifiedModes" />
		<!-- Defines the chain-based modes, seperated by commas -->
		<param name="chainBasedModes" value="car,bike" />
		<!-- Defines whether car availability must be considered or not. A agent has no car only if it has no license, or never access to a car -->
		<param name="considerCarAvailability" value="false" />
		<!-- Defines all the modes available, including chain-based modes, seperated by commas -->
		<param name="modes" value="car,pt,bike,walk" />
	</module>
	<module name="transit" >
		<!-- The Coordinates Reference System in which the coordinates are expressed in the input file. At import, the coordinates will be converted to the coordinate system defined in "global", and willbe converted back at export. If not specified, no conversion happens. -->
		<param name="inputScheduleCRS" value="null" />
		<!-- Optional input file containing additional attributes for transit lines, stored as ObjectAttributes. -->
		<param name="transitLinesAttributesFile" value="null" />
		<!-- Comma-separated list of transportation modes that are handled as transit. Defaults to 'pt'. -->
		<param name="transitModes" value="pt" />
		<!-- Input file containing the transit schedule to be simulated. -->
		<param name="transitScheduleFile" value="null" />
		<!-- Optional input file containing additional attributes for transit stop facilities, stored as ObjectAttributes. -->
		<param name="transitStopsAttributesFile" value="null" />
		<!-- Set this parameter to true if transit should be simulated, false if not. -->
		<param name="useTransit" value="false" />
		<!-- Input file containing the vehicles used by the departures in the transit schedule. -->
		<param name="vehiclesFile" value="null" />
	</module>
	<module name="transitRouter" >
		<!-- additional time the router allocates when a line switch happens. Can be interpreted as a 'safety' time that agents need to safely transfer from one line to another -->
		<param name="additionalTransferTime" value="0.0" />
		<!-- Factor with which direct walk generalized cost is multiplied before it is compared to the pt generalized cost.  Set to a very high value to reduce direct walk results. -->
		<param name="directWalkFactor" value="1.0" />
		<!-- step size to increase searchRadius if no stops are found -->
		<param name="extensionRadius" value="200.0" />
		<!-- maximum beeline distance between stops that agents could transfer to by walking -->
		<param name="maxBeelineWalkConnectionDistance" value="100.0" />
		<!-- the radius in which stop locations are searched, given a start or target coordinate -->
		<param name="searchRadius" value="1000.0" />
	</module>
	<module name="travelTimeCalculator" >
		<!-- (only for backwards compatibility; only used if separateModes==false && + filterModes==true)  Transport modes that will be respected by the travel time collector. 'car' is default which includes also buses from the pt simulation module. -->
		<param name="analyzedModes" value="car" />
		<param name="calculateLinkToLinkTravelTimes" value="false" />
		<param name="calculateLinkTravelTimes" value="true" />
		<!-- (only for backwards compatiblity; only used if separateModes==false)  Only modes included in analyzedModes are included. -->
		<param name="filterModes" value="false" />
		<!-- The lenght (in sec) of the time period that is splited into time bins; an additional time bin is created to aggregate all travel times collected after maxTime -->
		<param name="maxTime" value="108000" />
		<!-- (only for backwards compatibility) If false, link travel times are measured and aggregated over all vehicles using the link. -->
		<param name="separateModes" value="true" />
		<!-- How to deal with congested time bins that have no link entry events. `optimistic' assumes free speed (too optimistic); 'experimental_LastMile' is experimental and probably too pessimistic. -->
		<param name="travelTimeAggregator" value="optimistic" />
		<!-- The size of the time bin (in sec) into which the link travel times are aggregated for the router -->
		<param name="travelTimeBinSize" value="900" />
		<!-- possible values: TravelTimeCalculatorArray TravelTimeCalculatorHashMap  -->
		<param name="travelTimeCalculator" value="TravelTimeCalculatorArray" />
		<!-- How to deal with link entry times at different positions during the time bin. Currently supported: average, linearinterpolation -->
		<param name="travelTimeGetter" value="average" />
	</module>
	<module name="vehicles" >
		<param name="vehiclesFile" value="null" />
	</module>
	<module name="vspExperimental" >
		<!-- (do not use except of you have to) There was a problem with pt interaction scoring.  Some people solved it by overwriting the parameters of the pt interaction activity type.  Doing this now throws an Exception.  If you still insist on doing this, set the following to true. -->
		<param name="isAbleToOverwritePtInteractionParams" value="false" />
		<param name="isGeneratingBoardingDeniedEvent" value="false" />
		<!-- if an approximation of the opportunity cost of time is included into the radius calculation for location choice.`true' will be faster, but it is an approximation.  Default is `true'; `false' is available for backwards compatibility. -->
		<param name="isUsingOpportunityCostOfTimeForLocationChoice" value="true" />
		<param name="logitScaleParamForPlansRemoval" value="1.0" />
		<!-- Options: | ignore | info | warn | abort | .  When violating VSP defaults, this results in nothing, logfile infos, logfile warnings, or aborts.  Members of VSP should use `abort' or talk to kai. -->
		<param name="vspDefaultsCheckingLevel" value="ignore" />
		<!-- if true then writes output_events in output directory.  default is `false'. Will only work when lastIteration is multiple of events writing interval -->
		<param name="writingOutputEvents" value="true" />
	</module>

</config>

2019-06-11 15:17:14,269  INFO ControlerUtils:63 Complete config dump done.
2019-06-11 15:17:14,269  INFO ControlerUtils:64 Checking consistency of config...
2019-06-11 15:17:14,269  INFO VspConfigConsistencyCheckerImpl:58 NOT running vsp config consistency check because vsp defaults checking level is set to IGNORE
2019-06-11 15:17:14,270  INFO ControlerUtils:66 Checking consistency of config done.
2019-06-11 15:17:14,273 DEBUG NetworkRoutingProvider:75 requesting network routing module with routingMode=car;	mode=car
2019-06-11 15:17:14,274 DEBUG NetworkRoutingProvider:75 requesting network routing module with routingMode=car;	mode=car
2019-06-11 15:17:14,274  INFO Counter:70 [PersonPrepareForSim] handled person # 1
2019-06-11 15:17:14,275  INFO Counter:70 [PersonPrepareForSim] handled person # 2
2019-06-11 15:17:14,275  INFO Counter:70 [PersonPrepareForSim] handled person # 4
2019-06-11 15:17:14,275  INFO Counter:70 [PersonPrepareForSim] handled person # 8
2019-06-11 15:17:14,275  INFO Counter:70 [PersonPrepareForSim] handled person # 16
2019-06-11 15:17:14,275  INFO Counter:70 [PersonPrepareForSim] handled person # 32
2019-06-11 15:17:14,276  INFO Counter:70 [PersonPrepareForSim] handled person # 64
2019-06-11 15:17:14,276  INFO Counter:76 [PersonPrepareForSim] handled person # 100
2019-06-11 15:17:14,276  INFO Counter:70 [VehiclesImpl] added vehicle # 1
2019-06-11 15:17:14,277  INFO Counter:70 [VehiclesImpl] added vehicle # 2
2019-06-11 15:17:14,277  INFO Counter:70 [VehiclesImpl] added vehicle # 4
2019-06-11 15:17:14,277  INFO Counter:70 [VehiclesImpl] added vehicle # 8
2019-06-11 15:17:14,277  INFO Counter:70 [VehiclesImpl] added vehicle # 16
2019-06-11 15:17:14,277  INFO Counter:70 [VehiclesImpl] added vehicle # 32
2019-06-11 15:17:14,277  INFO Counter:70 [VehiclesImpl] added vehicle # 64
2019-06-11 15:17:14,278  INFO AbstractController:123 ###################################################
2019-06-11 15:17:14,278  INFO AbstractController:124 ### ITERATION 0 BEGINS
2019-06-11 15:17:14,279  INFO ControlerListenerManagerImpl:145 calling notifyIterationStarts on org.matsim.analysis.LegHistogramListener
2019-06-11 15:17:14,280  INFO ControlerListenerManagerImpl:145 calling notifyIterationStarts on org.matsim.analysis.LinkStatsControlerListener
2019-06-11 15:17:14,280  INFO ControlerListenerManagerImpl:145 calling notifyIterationStarts on org.matsim.core.replanning.ReplanningContextImpl
2019-06-11 15:17:14,280  INFO ControlerListenerManagerImpl:145 calling notifyIterationStarts on org.matsim.core.scoring.ExperiencedPlansServiceImpl$1
2019-06-11 15:17:14,280  INFO ControlerListenerManagerImpl:145 calling notifyIterationStarts on org.matsim.core.scoring.ScoringFunctionsForPopulation$1
2019-06-11 15:17:14,295  INFO ControlerListenerManagerImpl:148 [it.0] all ControlerIterationStartsListeners called.
2019-06-11 15:17:14,297  INFO ControlerListenerManagerImpl:224 calling notifyBeforeMobsim on org.matsim.core.controler.corelisteners.EventsHandlingImpl
2019-06-11 15:17:14,297  INFO EventsManagerImpl:170 resetting Event-Handlers
2019-06-11 15:17:14,297  INFO EventsManagerImpl:177   org.matsim.core.trafficmonitoring.TravelTimeCalculator
2019-06-11 15:17:14,299  INFO EventsManagerImpl:177   org.matsim.core.scoring.EventsToLegsAndActivities
2019-06-11 15:17:14,299  INFO EventsManagerImpl:177   org.matsim.analysis.VolumesAnalyzer
2019-06-11 15:17:14,299  INFO EventsManagerImpl:177   org.matsim.core.events.algorithms.Vehicle2DriverEventHandler
2019-06-11 15:17:14,299  INFO EventsManagerImpl:177   org.matsim.core.scoring.ScoringFunctionsForPopulation
2019-06-11 15:17:14,300  INFO EventsManagerImpl:177   org.matsim.analysis.LegHistogram
2019-06-11 15:17:14,300  INFO EventsManagerImpl:177   org.matsim.analysis.CalcLegTimes
2019-06-11 15:17:14,302  INFO EventsManagerImpl:144 adding Event-Handler: org.matsim.core.events.algorithms.EventWriterXML
2019-06-11 15:17:14,303  INFO EventsManagerImpl:148   org.matsim.core.events.algorithms.EventWriter
2019-06-11 15:17:14,303  INFO EventsManagerImpl:148   org.matsim.core.events.handler.BasicEventHandler
2019-06-11 15:17:14,303  INFO EventsManagerImpl:207     > org.matsim.api.core.v01.events.Event
2019-06-11 15:17:14,303  INFO EventsManagerImpl:156 
2019-06-11 15:17:14,303  INFO EventsManagerImpl:144 adding Event-Handler: org.matsim.core.events.algorithms.EventWriterXML
2019-06-11 15:17:14,303  INFO EventsManagerImpl:148   org.matsim.core.events.algorithms.EventWriter
2019-06-11 15:17:14,304  INFO EventsManagerImpl:148   org.matsim.core.events.handler.BasicEventHandler
2019-06-11 15:17:14,304  INFO EventsManagerImpl:207     > org.matsim.api.core.v01.events.Event
2019-06-11 15:17:14,304  INFO EventsManagerImpl:156 
2019-06-11 15:17:14,304  INFO ControlerListenerManagerImpl:224 calling notifyBeforeMobsim on org.matsim.core.controler.corelisteners.PlansDumpingImpl
2019-06-11 15:17:14,304  INFO PlansDumpingImpl:76 dumping plans...
2019-06-11 15:17:14,312  INFO Counter:70 [PopulationWriter] dumped person # 1
2019-06-11 15:17:14,312  INFO Counter:70 [PopulationWriter] dumped person # 2
2019-06-11 15:17:14,313  INFO Counter:70 [PopulationWriter] dumped person # 4
2019-06-11 15:17:14,313  INFO Counter:70 [PopulationWriter] dumped person # 8
2019-06-11 15:17:14,314  INFO Counter:70 [PopulationWriter] dumped person # 16
2019-06-11 15:17:14,321  INFO Counter:70 [PopulationWriter] dumped person # 32
2019-06-11 15:17:14,327  INFO Counter:70 [PopulationWriter] dumped person # 64
2019-06-11 15:17:14,329  INFO PopulationWriter:139 Population written to: ./scenarios/equil/output/ITERS/it.0/0.plans.xml.gz
2019-06-11 15:17:14,332  INFO Counter:76 [PopulationWriter] dumped person # 100
2019-06-11 15:17:14,333  INFO PlansDumpingImpl:93 finished plans dump.
2019-06-11 15:17:14,333  INFO ControlerListenerManagerImpl:229 calling notifyBeforeMobsim on org.matsim.core.population.VspPlansCleaner
2019-06-11 15:17:14,333  INFO ControlerListenerManagerImpl:232 [it.0] all ControlerBeforeMobsimListeners called.
2019-06-11 15:17:14,336 DEBUG NetworkRoutingProvider:75 requesting network routing module with routingMode=car;	mode=car
2019-06-11 15:17:14,336 DEBUG NetworkRoutingProvider:75 requesting network routing module with routingMode=car;	mode=car
2019-06-11 15:17:14,337  INFO Counter:70 [PersonPrepareForSim] handled person # 1
2019-06-11 15:17:14,337  INFO Counter:70 [PersonPrepareForSim] handled person # 2
2019-06-11 15:17:14,337  INFO Counter:70 [PersonPrepareForSim] handled person # 4
2019-06-11 15:17:14,338  INFO Counter:70 [PersonPrepareForSim] handled person # 8
2019-06-11 15:17:14,338  INFO Counter:70 [PersonPrepareForSim] handled person # 16
2019-06-11 15:17:14,338  INFO Counter:70 [PersonPrepareForSim] handled person # 32
2019-06-11 15:17:14,338  INFO Counter:70 [PersonPrepareForSim] handled person # 64
2019-06-11 15:17:14,338  INFO Counter:76 [PersonPrepareForSim] handled person # 100
2019-06-11 15:17:14,428  INFO MobsimListenerManager:49 calling addQueueSimulationListener
2019-06-11 15:17:14,429  INFO MobsimListenerManager:53   assigned class org.matsim.core.mobsim.framework.listeners.MobsimListener to interface org.matsim.core.mobsim.framework.listeners.MobsimBeforeCleanupListener
2019-06-11 15:17:14,429  INFO MobsimListenerManager:53   assigned class org.matsim.core.mobsim.framework.listeners.MobsimListener to interface org.matsim.core.mobsim.framework.listeners.MobsimInitializedListener
2019-06-11 15:17:14,429  INFO MobsimListenerManager:53   assigned class org.matsim.core.mobsim.framework.listeners.MobsimListener to interface org.matsim.vis.snapshotwriters.SnapshotWriterManager
2019-06-11 15:17:14,429  INFO MobsimListenerManager:53   assigned class org.matsim.core.mobsim.framework.listeners.MobsimListener to interface org.matsim.core.mobsim.framework.listeners.MobsimAfterSimStepListener
2019-06-11 15:17:14,430  INFO MobsimListenerManager:53   assigned class org.matsim.core.mobsim.framework.listeners.MobsimListener to interface org.matsim.core.mobsim.framework.listeners.MobsimListener
2019-06-11 15:17:14,441  WARN QueueWithBuffer:378 Link 1 too small: enlarge storage capacity from: 1333.3333333333333 Vehicles to: 3599.712023038157 Vehicles.  This is not fatal, but modifies the traffic flow dynamics.
2019-06-11 15:17:14,442  WARN QueueWithBuffer:378 Link 20 too small: enlarge storage capacity from: 1333.3333333333333 Vehicles to: 3599.712023038157 Vehicles.  This is not fatal, but modifies the traffic flow dynamics.
2019-06-11 15:17:14,443  WARN QueueWithBuffer:378 Link 21 too small: enlarge storage capacity from: 1333.3333333333333 Vehicles to: 3599.712023038157 Vehicles.  This is not fatal, but modifies the traffic flow dynamics.
2019-06-11 15:17:14,443  WARN QueueWithBuffer:378 Link 22 too small: enlarge storage capacity from: 4666.666666666667 Vehicles to: 12598.99208063355 Vehicles.  This is not fatal, but modifies the traffic flow dynamics.
2019-06-11 15:17:14,443  WARN QueueWithBuffer:378 Link 23 too small: enlarge storage capacity from: 1333.3333333333333 Vehicles to: 3599.712023038157 Vehicles.  This is not fatal, but modifies the traffic flow dynamics.
2019-06-11 15:17:14,447  INFO QSimProvider:111 Added MobsimEngine class org.matsim.core.mobsim.qsim.ActivityEngine
2019-06-11 15:17:14,447  INFO QSimProvider:117 Added Activityhandler class org.matsim.core.mobsim.qsim.ActivityEngine
2019-06-11 15:17:14,447  INFO QSimProvider:123 Added DepartureHandler class org.matsim.core.mobsim.qsim.qnetsimengine.VehicularDepartureHandler
2019-06-11 15:17:14,447  INFO QSimProvider:111 Added MobsimEngine class org.matsim.core.mobsim.qsim.qnetsimengine.QNetsimEngine
2019-06-11 15:17:14,447  INFO QSimProvider:111 Added MobsimEngine class org.matsim.core.mobsim.qsim.DefaultTeleportationEngine
2019-06-11 15:17:14,448  INFO QSimProvider:123 Added DepartureHandler class org.matsim.core.mobsim.qsim.DefaultTeleportationEngine
2019-06-11 15:17:14,448  INFO QSimProvider:129 Added AgentSource class org.matsim.core.mobsim.qsim.agents.PopulationAgentSource
2019-06-11 15:17:14,448  INFO MobsimListenerManager:49 calling addQueueSimulationListener
2019-06-11 15:17:14,448  INFO MobsimListenerManager:53   assigned class org.matsim.core.mobsim.framework.listeners.MobsimListener to interface org.matsim.core.mobsim.framework.listeners.MobsimBeforeSimStepListener
2019-06-11 15:17:14,448  INFO MobsimListenerManager:53   assigned class org.matsim.core.mobsim.framework.listeners.MobsimListener to interface org.matsim.core.mobsim.qsim.messagequeueengine.MessageQueueEngine
2019-06-11 15:17:14,448  INFO MobsimListenerManager:53   assigned class org.matsim.core.mobsim.framework.listeners.MobsimListener to interface org.matsim.core.mobsim.framework.listeners.MobsimListener
2019-06-11 15:17:14,448  INFO QSimProvider:135 Added MobsimListener class org.matsim.core.mobsim.qsim.messagequeueengine.MessageQueueEngine
2019-06-11 15:17:14,456  INFO QNetsimEngine:506 Assigned 15 nodes and 23 links to QSimEngineRunner #0
2019-06-11 15:17:14,458  INFO EventsManagerImpl:134  event # 1
2019-06-11 15:17:14,460  INFO EventsManagerImpl:134  event # 4
2019-06-11 15:17:14,460  INFO QNetsimEngine:346 SIMULATION (QNetsimEngine) AT 05:58:30 : #links=0 #nodes=1
2019-06-11 15:17:14,460  INFO QSim:505 SIMULATION (NEW QSim) AT 05:58:30 : #Veh=100 lost=0 simT=0.0s realT=0s; (s/r): 0.0
2019-06-11 15:17:14,460  INFO Gbl:58 used RAM: 39223760B = 38304kB = 37MB  free: 123829808B = 118MB  total: 163053568B = 155MB
2019-06-11 15:17:14,470  INFO EventsManagerImpl:134  event # 16
2019-06-11 15:17:14,475  INFO EventsManagerImpl:134  event # 64
2019-06-11 15:17:14,478  INFO QNetsimEngine:346 SIMULATION (QNetsimEngine) AT 06:00:00 : #links=2 #nodes=1
2019-06-11 15:17:14,478  INFO QSim:505 SIMULATION (NEW QSim) AT 06:00:00 : #Veh=100 lost=0 simT=90.0s realT=0s; (s/r): Infinity
2019-06-11 15:17:14,478  INFO Gbl:58 used RAM: 39223760B = 38304kB = 37MB  free: 123829808B = 118MB  total: 163053568B = 155MB
2019-06-11 15:17:14,479  INFO EventsManagerImpl:134  event # 256
2019-06-11 15:17:14,593  INFO EventsManagerImpl:134  event # 1024
2019-06-11 15:17:14,771  INFO QNetsimEngine:346 SIMULATION (QNetsimEngine) AT 07:00:00 : #links=1 #nodes=0
2019-06-11 15:17:14,771  INFO QSim:505 SIMULATION (NEW QSim) AT 07:00:00 : #Veh=100 lost=0 simT=3690.0s realT=0s; (s/r): Infinity
2019-06-11 15:17:14,771  INFO Gbl:58 used RAM: 43945248B = 42915kB = 41MB  free: 119108320B = 113MB  total: 163053568B = 155MB
2019-06-11 15:17:14,949  INFO QNetsimEngine:346 SIMULATION (QNetsimEngine) AT 08:00:00 : #links=1 #nodes=0
2019-06-11 15:17:14,949  INFO QSim:505 SIMULATION (NEW QSim) AT 08:00:00 : #Veh=5 lost=0 simT=7290.0s realT=0s; (s/r): Infinity
2019-06-11 15:17:14,949  INFO Gbl:58 used RAM: 46646864B = 45553kB = 44MB  free: 116406704B = 111MB  total: 163053568B = 155MB
2019-06-11 15:17:15,099  INFO QNetsimEngine:346 SIMULATION (QNetsimEngine) AT 09:00:00 : #links=1 #nodes=0
2019-06-11 15:17:15,099  INFO QSim:505 SIMULATION (NEW QSim) AT 09:00:00 : #Veh=4 lost=0 simT=10890.0s realT=0s; (s/r): Infinity
2019-06-11 15:17:15,099  INFO Gbl:58 used RAM: 48666848B = 47526kB = 46MB  free: 114386720B = 109MB  total: 163053568B = 155MB
2019-06-11 15:17:15,242  INFO QNetsimEngine:346 SIMULATION (QNetsimEngine) AT 10:00:00 : #links=0 #nodes=0
2019-06-11 15:17:15,242  INFO QSim:505 SIMULATION (NEW QSim) AT 10:00:00 : #Veh=2 lost=0 simT=14490.0s realT=0s; (s/r): Infinity
2019-06-11 15:17:15,243  INFO Gbl:58 used RAM: 52025328B = 50805kB = 49MB  free: 111028240B = 105MB  total: 163053568B = 155MB
2019-06-11 15:17:15,364  INFO QNetsimEngine:346 SIMULATION (QNetsimEngine) AT 11:00:00 : #links=0 #nodes=0
2019-06-11 15:17:15,364  INFO QSim:505 SIMULATION (NEW QSim) AT 11:00:00 : #Veh=1 lost=0 simT=18090.0s realT=0s; (s/r): Infinity
2019-06-11 15:17:15,364  INFO Gbl:58 used RAM: 53363728B = 52113kB = 50MB  free: 109689840B = 104MB  total: 163053568B = 155MB
2019-06-11 15:17:15,495  INFO QNetsimEngine:346 SIMULATION (QNetsimEngine) AT 12:00:00 : #links=0 #nodes=0
2019-06-11 15:17:15,496  INFO QSim:505 SIMULATION (NEW QSim) AT 12:00:00 : #Veh=1 lost=0 simT=21690.0s realT=1s; (s/r): 21690.0
2019-06-11 15:17:15,496  INFO Gbl:58 used RAM: 56065312B = 54751kB = 53MB  free: 106988256B = 102MB  total: 163053568B = 155MB
2019-06-11 15:17:15,629  INFO QNetsimEngine:346 SIMULATION (QNetsimEngine) AT 13:00:00 : #links=1 #nodes=0
2019-06-11 15:17:15,629  INFO QSim:505 SIMULATION (NEW QSim) AT 13:00:00 : #Veh=1 lost=0 simT=25290.0s realT=1s; (s/r): 25290.0
2019-06-11 15:17:15,630  INFO Gbl:58 used RAM: 57403712B = 56058kB = 54MB  free: 105649856B = 100MB  total: 163053568B = 155MB
2019-06-11 15:17:15,688  INFO Gbl:191 Thread performance: Thread=class org.matsim.core.events.SimStepParallelEventsManagerImpl$ProcessEventsRunnable0  cpu-time=0.241918sec
2019-06-11 15:17:15,688  INFO AbstractController$9:220 ### ITERATION 0 fires after mobsim event
2019-06-11 15:17:15,689  INFO ControlerListenerManagerImpl:248 calling notifyAfterMobsim on org.matsim.analysis.LegTimesControlerListener
2019-06-11 15:17:15,689  INFO LegTimesControlerListener:50 [0] average trip (probably: leg) duration is: 1695 seconds = 00:28:15
2019-06-11 15:17:15,689  INFO ControlerListenerManagerImpl:248 calling notifyAfterMobsim on org.matsim.core.scoring.EventsToActivities$1
2019-06-11 15:17:15,690  INFO ControlerListenerManagerImpl:251 [it.0] all ControlerAfterMobsimListeners called.
2019-06-11 15:17:15,691  INFO AbstractController$4:149 ### ITERATION 0 fires scoring event
2019-06-11 15:17:15,691  INFO ControlerListenerManagerImpl:183 calling notifyScoring on org.matsim.core.scoring.PlansScoringImpl
2019-06-11 15:17:15,692  INFO NewScoreAssignerImpl:36 it: 0 msaStart: null
2019-06-11 15:17:15,692  INFO ControlerListenerManagerImpl:194 [it.0] all ControlerScoringListeners called.
2019-06-11 15:17:15,692  INFO AbstractController$5:157 ### ITERATION 0 fires iteration end event
2019-06-11 15:17:15,693  INFO ControlerListenerManagerImpl:160 calling notifyIterationEnds on org.matsim.core.controler.corelisteners.EventsHandlingImpl
2019-06-11 15:17:15,694  INFO EventsManagerImpl:161 removing Event-Handler: org.matsim.core.events.algorithms.EventWriterXML
2019-06-11 15:17:15,694  INFO EventsManagerImpl:161 removing Event-Handler: org.matsim.core.events.algorithms.EventWriterXML
2019-06-11 15:17:15,694  INFO ControlerListenerManagerImpl:160 calling notifyIterationEnds on org.matsim.core.scoring.PlansScoringImpl
2019-06-11 15:17:15,695  INFO ControlerListenerManagerImpl:167 calling notifyIterationEnds on org.matsim.counts.CountsControlerListener
2019-06-11 15:17:15,695  INFO ControlerListenerManagerImpl:167 calling notifyIterationEnds on org.matsim.analysis.ModeStatsControlerListener
2019-06-11 15:17:15,695  INFO ModeStatsControlerListener:155 -- mode share of mode bike = 0.0
2019-06-11 15:17:15,695  INFO ModeStatsControlerListener:155 -- mode share of mode car = 1.0
2019-06-11 15:17:15,696  INFO ModeStatsControlerListener:155 -- mode share of mode other = 0.0
2019-06-11 15:17:15,696  INFO ModeStatsControlerListener:155 -- mode share of mode pt = 0.0
2019-06-11 15:17:15,696  INFO ModeStatsControlerListener:155 -- mode share of mode ride = 0.0
2019-06-11 15:17:15,696  INFO ModeStatsControlerListener:155 -- mode share of mode walk = 0.0
2019-06-11 15:17:15,696  INFO ControlerListenerManagerImpl:167 calling notifyIterationEnds on org.matsim.analysis.ScoreStatsControlerListener
2019-06-11 15:17:15,696  INFO ScoreStatsControlerListener:191 -- avg. score of the executed plan of each agent: 64.75686659291274
2019-06-11 15:17:15,696  INFO ScoreStatsControlerListener:192 -- avg. score of the worst plan of each agent: 64.75686659291274
2019-06-11 15:17:15,696  INFO ScoreStatsControlerListener:193 -- avg. of the avg. plan score per agent: 64.75686659291274
2019-06-11 15:17:15,696  INFO ScoreStatsControlerListener:194 -- avg. score of the best plan of each agent: 64.75686659291274
2019-06-11 15:17:15,697  INFO ControlerListenerManagerImpl:167 calling notifyIterationEnds on org.matsim.analysis.TravelDistanceStatsControlerListener
2019-06-11 15:17:15,697  INFO TravelDistanceStats:128 [TravelDistanceStats] using 2 thread(s).
2019-06-11 15:17:15,697  INFO TravelDistanceStats:141 [TravelDistanceStats] all threads finished.
2019-06-11 15:17:15,697  INFO TravelDistanceStats:161 -- average of the average leg distance per plan (executed plans only): 44850.0
2019-06-11 15:17:15,697  INFO TravelDistanceStats:162 (TravelDistanceStats takes an average over all legs where the simulation reports travelled distances. These are car legs, pt legs,
2019-06-11 15:17:15,698  INFO TravelDistanceStats:163 (and teleported legs whose route contains a distance.)
2019-06-11 15:17:15,698  INFO ControlerListenerManagerImpl:167 calling notifyIterationEnds on org.matsim.analysis.LegHistogramListener
2019-06-11 15:17:15,702  INFO LegHistogramListener:72 number of legs:	201	100%
2019-06-11 15:17:15,702  INFO LegHistogramListener:79 number of car legs:	201	100.0%
2019-06-11 15:17:18,020  INFO ControlerListenerManagerImpl:167 calling notifyIterationEnds on org.matsim.analysis.LinkStatsControlerListener
2019-06-11 15:17:18,021  INFO ControlerListenerManagerImpl:171 [it.0] all ControlerIterationEndsListeners called.
2019-06-11 15:17:18,232  INFO AbstractController:167 ### ITERATION 0 ENDS
2019-06-11 15:17:18,232  INFO AbstractController:168 ###################################################
2019-06-11 15:17:18,233  INFO AbstractController:123 ###################################################
2019-06-11 15:17:18,233  INFO AbstractController:124 ### ITERATION 1 BEGINS
2019-06-11 15:17:18,233  INFO ControlerListenerManagerImpl:145 calling notifyIterationStarts on org.matsim.analysis.LegHistogramListener
2019-06-11 15:17:18,233  INFO ControlerListenerManagerImpl:145 calling notifyIterationStarts on org.matsim.analysis.LinkStatsControlerListener
2019-06-11 15:17:18,233  INFO ControlerListenerManagerImpl:145 calling notifyIterationStarts on org.matsim.core.replanning.ReplanningContextImpl
2019-06-11 15:17:18,233  INFO ControlerListenerManagerImpl:145 calling notifyIterationStarts on org.matsim.core.scoring.ExperiencedPlansServiceImpl$1
2019-06-11 15:17:18,233  INFO ControlerListenerManagerImpl:145 calling notifyIterationStarts on org.matsim.core.scoring.ScoringFunctionsForPopulation$1
2019-06-11 15:17:18,234  INFO ControlerListenerManagerImpl:148 [it.1] all ControlerIterationStartsListeners called.
2019-06-11 15:17:18,234  INFO ControlerListenerManagerImpl:205 calling notifyReplanning on org.matsim.core.controler.corelisteners.PlansReplanningImpl
2019-06-11 15:17:18,235 DEBUG NetworkRoutingProvider:75 requesting network routing module with routingMode=car;	mode=car
2019-06-11 15:17:18,235 DEBUG NetworkRoutingProvider:75 requesting network routing module with routingMode=car;	mode=car
2019-06-11 15:17:18,236  INFO GenericPlanStrategyImpl:125 Plan-Strategy finished, 89 plans handled. Strategy: BestPlanSelector
2019-06-11 15:17:18,236  INFO AbstractMultithreadedModule:141 [PlanRouter] starting 2 threads, handling 11 plans
2019-06-11 15:17:18,242  INFO Counter:70 [PlanRouter] handled plan # 1
2019-06-11 15:17:18,242  INFO Counter:70 [PlanRouter] handled plan # 2
2019-06-11 15:17:18,243  INFO Counter:70 [PlanRouter] handled plan # 4
2019-06-11 15:17:18,244  INFO Counter:70 [PlanRouter] handled plan # 8
2019-06-11 15:17:18,245  INFO AbstractMultithreadedModule:156 [PlanRouter] all 2 threads finished.
2019-06-11 15:17:18,245  INFO GenericPlanStrategyImpl:125 Plan-Strategy finished, 11 plans handled. Strategy: RandomPlanSelector_ReRoute
2019-06-11 15:17:18,245  INFO ControlerListenerManagerImpl:213 [it.1] all ControlerReplanningListeners called.
2019-06-11 15:17:18,245  INFO ControlerListenerManagerImpl:224 calling notifyBeforeMobsim on org.matsim.core.controler.corelisteners.EventsHandlingImpl
2019-06-11 15:17:18,245  INFO EventsManagerImpl:170 resetting Event-Handlers
2019-06-11 15:17:18,245  INFO EventsManagerImpl:177   org.matsim.core.trafficmonitoring.TravelTimeCalculator
2019-06-11 15:17:18,246  INFO EventsManagerImpl:177   org.matsim.core.scoring.EventsToLegsAndActivities
2019-06-11 15:17:18,246  INFO EventsManagerImpl:177   org.matsim.analysis.VolumesAnalyzer
2019-06-11 15:17:18,246  INFO EventsManagerImpl:177   org.matsim.core.events.algorithms.Vehicle2DriverEventHandler
2019-06-11 15:17:18,246  INFO EventsManagerImpl:177   org.matsim.core.scoring.ScoringFunctionsForPopulation
2019-06-11 15:17:18,246  INFO EventsManagerImpl:177   org.matsim.analysis.LegHistogram
2019-06-11 15:17:18,246  INFO EventsManagerImpl:177   org.matsim.analysis.CalcLegTimes
2019-06-11 15:17:18,246  INFO ControlerListenerManagerImpl:224 calling notifyBeforeMobsim on org.matsim.core.controler.corelisteners.PlansDumpingImpl
2019-06-11 15:17:18,246  INFO PlansDumpingImpl:76 dumping plans...
2019-06-11 15:17:18,247  INFO Counter:70 [PopulationWriter] dumped person # 1
2019-06-11 15:17:18,247  INFO Counter:70 [PopulationWriter] dumped person # 2
2019-06-11 15:17:18,248  INFO Counter:70 [PopulationWriter] dumped person # 4
2019-06-11 15:17:18,248  INFO Counter:70 [PopulationWriter] dumped person # 8
2019-06-11 15:17:18,248  INFO Counter:70 [PopulationWriter] dumped person # 16
2019-06-11 15:17:18,249  INFO Counter:70 [PopulationWriter] dumped person # 32
2019-06-11 15:17:18,250  INFO Counter:70 [PopulationWriter] dumped person # 64
2019-06-11 15:17:18,254  INFO PopulationWriter:139 Population written to: ./scenarios/equil/output/ITERS/it.1/1.plans.xml.gz
2019-06-11 15:17:18,255  INFO Counter:76 [PopulationWriter] dumped person # 100
2019-06-11 15:17:18,255  INFO PlansDumpingImpl:93 finished plans dump.
2019-06-11 15:17:18,255  INFO ControlerListenerManagerImpl:229 calling notifyBeforeMobsim on org.matsim.core.population.VspPlansCleaner
2019-06-11 15:17:18,255  INFO ControlerListenerManagerImpl:232 [it.1] all ControlerBeforeMobsimListeners called.
2019-06-11 15:17:18,256 DEBUG NetworkRoutingProvider:75 requesting network routing module with routingMode=car;	mode=car
2019-06-11 15:17:18,256 DEBUG NetworkRoutingProvider:75 requesting network routing module with routingMode=car;	mode=car
2019-06-11 15:17:18,258  INFO Counter:70 [PersonPrepareForSim] handled person # 1
2019-06-11 15:17:18,258  INFO Counter:70 [PersonPrepareForSim] handled person # 2
2019-06-11 15:17:18,258  INFO Counter:70 [PersonPrepareForSim] handled person # 4
2019-06-11 15:17:18,258  INFO Counter:70 [PersonPrepareForSim] handled person # 8
2019-06-11 15:17:18,258  INFO Counter:70 [PersonPrepareForSim] handled person # 32
2019-06-11 15:17:18,258  INFO Counter:70 [PersonPrepareForSim] handled person # 16
2019-06-11 15:17:18,259  INFO Counter:70 [PersonPrepareForSim] handled person # 64
2019-06-11 15:17:18,259  INFO Counter:76 [PersonPrepareForSim] handled person # 100
2019-06-11 15:17:18,280  INFO MobsimListenerManager:49 calling addQueueSimulationListener
2019-06-11 15:17:18,280  INFO MobsimListenerManager:53   assigned class org.matsim.core.mobsim.framework.listeners.MobsimListener to interface org.matsim.core.mobsim.framework.listeners.MobsimBeforeCleanupListener
2019-06-11 15:17:18,280  INFO MobsimListenerManager:53   assigned class org.matsim.core.mobsim.framework.listeners.MobsimListener to interface org.matsim.core.mobsim.framework.listeners.MobsimInitializedListener
2019-06-11 15:17:18,281  INFO MobsimListenerManager:53   assigned class org.matsim.core.mobsim.framework.listeners.MobsimListener to interface org.matsim.vis.snapshotwriters.SnapshotWriterManager
2019-06-11 15:17:18,281  INFO MobsimListenerManager:53   assigned class org.matsim.core.mobsim.framework.listeners.MobsimListener to interface org.matsim.core.mobsim.framework.listeners.MobsimAfterSimStepListener
2019-06-11 15:17:18,281  INFO MobsimListenerManager:53   assigned class org.matsim.core.mobsim.framework.listeners.MobsimListener to interface org.matsim.core.mobsim.framework.listeners.MobsimListener
2019-06-11 15:17:18,281  WARN QueueWithBuffer:378 Link 1 too small: enlarge storage capacity from: 1333.3333333333333 Vehicles to: 3599.712023038157 Vehicles.  This is not fatal, but modifies the traffic flow dynamics.
2019-06-11 15:17:18,282  WARN QueueWithBuffer:378 Link 20 too small: enlarge storage capacity from: 1333.3333333333333 Vehicles to: 3599.712023038157 Vehicles.  This is not fatal, but modifies the traffic flow dynamics.
2019-06-11 15:17:18,282  WARN QueueWithBuffer:378 Link 21 too small: enlarge storage capacity from: 1333.3333333333333 Vehicles to: 3599.712023038157 Vehicles.  This is not fatal, but modifies the traffic flow dynamics.
2019-06-11 15:17:18,282  WARN QueueWithBuffer:378 Link 22 too small: enlarge storage capacity from: 4666.666666666667 Vehicles to: 12598.99208063355 Vehicles.  This is not fatal, but modifies the traffic flow dynamics.
2019-06-11 15:17:18,282  WARN QueueWithBuffer:378 Link 23 too small: enlarge storage capacity from: 1333.3333333333333 Vehicles to: 3599.712023038157 Vehicles.  This is not fatal, but modifies the traffic flow dynamics.
2019-06-11 15:17:18,283  INFO QSimProvider:111 Added MobsimEngine class org.matsim.core.mobsim.qsim.ActivityEngine
2019-06-11 15:17:18,283  INFO QSimProvider:117 Added Activityhandler class org.matsim.core.mobsim.qsim.ActivityEngine
2019-06-11 15:17:18,284  INFO QSimProvider:123 Added DepartureHandler class org.matsim.core.mobsim.qsim.qnetsimengine.VehicularDepartureHandler
2019-06-11 15:17:18,284  INFO QSimProvider:111 Added MobsimEngine class org.matsim.core.mobsim.qsim.qnetsimengine.QNetsimEngine
2019-06-11 15:17:18,284  INFO QSimProvider:111 Added MobsimEngine class org.matsim.core.mobsim.qsim.DefaultTeleportationEngine
2019-06-11 15:17:18,284  INFO QSimProvider:123 Added DepartureHandler class org.matsim.core.mobsim.qsim.DefaultTeleportationEngine
2019-06-11 15:17:18,284  INFO QSimProvider:129 Added AgentSource class org.matsim.core.mobsim.qsim.agents.PopulationAgentSource
2019-06-11 15:17:18,284  INFO MobsimListenerManager:49 calling addQueueSimulationListener
2019-06-11 15:17:18,284  INFO MobsimListenerManager:53   assigned class org.matsim.core.mobsim.framework.listeners.MobsimListener to interface org.matsim.core.mobsim.framework.listeners.MobsimBeforeSimStepListener
2019-06-11 15:17:18,285  INFO MobsimListenerManager:53   assigned class org.matsim.core.mobsim.framework.listeners.MobsimListener to interface org.matsim.core.mobsim.qsim.messagequeueengine.MessageQueueEngine
2019-06-11 15:17:18,285  INFO MobsimListenerManager:53   assigned class org.matsim.core.mobsim.framework.listeners.MobsimListener to interface org.matsim.core.mobsim.framework.listeners.MobsimListener
2019-06-11 15:17:18,285  INFO QSimProvider:135 Added MobsimListener class org.matsim.core.mobsim.qsim.messagequeueengine.MessageQueueEngine
2019-06-11 15:17:18,286  INFO QNetsimEngine:506 Assigned 15 nodes and 23 links to QSimEngineRunner #0
2019-06-11 15:17:18,287  INFO QNetsimEngine:346 SIMULATION (QNetsimEngine) AT 05:58:30 : #links=0 #nodes=1
2019-06-11 15:17:18,288  INFO QSim:505 SIMULATION (NEW QSim) AT 05:58:30 : #Veh=100 lost=0 simT=0.0s realT=0s; (s/r): 0.0
2019-06-11 15:17:18,288  INFO Gbl:58 used RAM: 58389696B = 57021kB = 55MB  free: 68488000B = 65MB  total: 126877696B = 121MB
2019-06-11 15:17:18,299  INFO QNetsimEngine:346 SIMULATION (QNetsimEngine) AT 06:00:00 : #links=2 #nodes=1
2019-06-11 15:17:18,299  INFO QSim:505 SIMULATION (NEW QSim) AT 06:00:00 : #Veh=100 lost=0 simT=90.0s realT=0s; (s/r): Infinity
2019-06-11 15:17:18,299  INFO Gbl:58 used RAM: 58389696B = 57021kB = 55MB  free: 68488000B = 65MB  total: 126877696B = 121MB
2019-06-11 15:17:18,380  INFO EventsManagerImpl:134  event # 4096
2019-06-11 15:17:18,544  INFO QNetsimEngine:346 SIMULATION (QNetsimEngine) AT 07:00:00 : #links=1 #nodes=0
2019-06-11 15:17:18,544  INFO QSim:505 SIMULATION (NEW QSim) AT 07:00:00 : #Veh=100 lost=0 simT=3690.0s realT=0s; (s/r): Infinity
2019-06-11 15:17:18,544  INFO Gbl:58 used RAM: 61782312B = 60334kB = 58MB  free: 65095384B = 62MB  total: 126877696B = 121MB
2019-06-11 15:17:18,737  INFO QNetsimEngine:346 SIMULATION (QNetsimEngine) AT 08:00:00 : #links=1 #nodes=0
2019-06-11 15:17:18,737  INFO QSim:505 SIMULATION (NEW QSim) AT 08:00:00 : #Veh=5 lost=0 simT=7290.0s realT=0s; (s/r): Infinity
2019-06-11 15:17:18,737  INFO Gbl:58 used RAM: 64387368B = 62878kB = 61MB  free: 62490328B = 59MB  total: 126877696B = 121MB
2019-06-11 15:17:18,925  INFO QNetsimEngine:346 SIMULATION (QNetsimEngine) AT 09:00:00 : #links=1 #nodes=0
2019-06-11 15:17:18,925  INFO QSim:505 SIMULATION (NEW QSim) AT 09:00:00 : #Veh=4 lost=0 simT=10890.0s realT=0s; (s/r): Infinity
2019-06-11 15:17:18,925  INFO Gbl:58 used RAM: 67325552B = 65747kB = 64MB  free: 59552144B = 56MB  total: 126877696B = 121MB
2019-06-11 15:17:19,109  INFO QNetsimEngine:346 SIMULATION (QNetsimEngine) AT 10:00:00 : #links=0 #nodes=0
2019-06-11 15:17:19,109  INFO QSim:505 SIMULATION (NEW QSim) AT 10:00:00 : #Veh=2 lost=0 simT=14490.0s realT=0s; (s/r): Infinity
2019-06-11 15:17:19,109  INFO Gbl:58 used RAM: 70718160B = 69060kB = 67MB  free: 56159536B = 53MB  total: 126877696B = 121MB
2019-06-11 15:17:19,327  INFO QNetsimEngine:346 SIMULATION (QNetsimEngine) AT 11:00:00 : #links=0 #nodes=0
2019-06-11 15:17:19,327  INFO QSim:505 SIMULATION (NEW QSim) AT 11:00:00 : #Veh=1 lost=0 simT=18090.0s realT=1s; (s/r): 18090.0
2019-06-11 15:17:19,327  INFO Gbl:58 used RAM: 73656312B = 71929kB = 70MB  free: 53221384B = 50MB  total: 126877696B = 121MB
2019-06-11 15:17:19,513  INFO QNetsimEngine:346 SIMULATION (QNetsimEngine) AT 12:00:00 : #links=0 #nodes=0
2019-06-11 15:17:19,513  INFO QSim:505 SIMULATION (NEW QSim) AT 12:00:00 : #Veh=1 lost=0 simT=21690.0s realT=1s; (s/r): 21690.0
2019-06-11 15:17:19,513  INFO Gbl:58 used RAM: 76313984B = 74525kB = 72MB  free: 50563712B = 48MB  total: 126877696B = 121MB
2019-06-11 15:17:19,709  INFO QNetsimEngine:346 SIMULATION (QNetsimEngine) AT 13:00:00 : #links=1 #nodes=0
2019-06-11 15:17:19,709  INFO QSim:505 SIMULATION (NEW QSim) AT 13:00:00 : #Veh=1 lost=0 simT=25290.0s realT=1s; (s/r): 25290.0
2019-06-11 15:17:19,710  INFO Gbl:58 used RAM: 16904296B = 16508kB = 16MB  free: 156635032B = 149MB  total: 173539328B = 165MB
2019-06-11 15:17:19,777  INFO Gbl:191 Thread performance: Thread=class org.matsim.core.events.SimStepParallelEventsManagerImpl$ProcessEventsRunnable0  cpu-time=0.250243sec
2019-06-11 15:17:19,778  INFO AbstractController$9:220 ### ITERATION 1 fires after mobsim event
2019-06-11 15:17:19,778  INFO ControlerListenerManagerImpl:248 calling notifyAfterMobsim on org.matsim.analysis.LegTimesControlerListener
2019-06-11 15:17:19,779  INFO LegTimesControlerListener:50 [1] average trip (probably: leg) duration is: 1678 seconds = 00:27:58
2019-06-11 15:17:19,780  INFO ControlerListenerManagerImpl:248 calling notifyAfterMobsim on org.matsim.core.scoring.EventsToActivities$1
2019-06-11 15:17:19,782  INFO ControlerListenerManagerImpl:251 [it.1] all ControlerAfterMobsimListeners called.
2019-06-11 15:17:19,782  INFO AbstractController$4:149 ### ITERATION 1 fires scoring event
2019-06-11 15:17:19,782  INFO ControlerListenerManagerImpl:183 calling notifyScoring on org.matsim.core.scoring.PlansScoringImpl
2019-06-11 15:17:19,783  INFO NewScoreAssignerImpl:36 it: 1 msaStart: null
2019-06-11 15:17:19,783  INFO ControlerListenerManagerImpl:194 [it.1] all ControlerScoringListeners called.
2019-06-11 15:17:19,784  INFO AbstractController$5:157 ### ITERATION 1 fires iteration end event
2019-06-11 15:17:19,784  INFO ControlerListenerManagerImpl:160 calling notifyIterationEnds on org.matsim.core.controler.corelisteners.EventsHandlingImpl
2019-06-11 15:17:19,784  INFO ControlerListenerManagerImpl:160 calling notifyIterationEnds on org.matsim.core.scoring.PlansScoringImpl
2019-06-11 15:17:19,784  INFO ControlerListenerManagerImpl:167 calling notifyIterationEnds on org.matsim.counts.CountsControlerListener
2019-06-11 15:17:19,784  INFO ControlerListenerManagerImpl:167 calling notifyIterationEnds on org.matsim.analysis.ModeStatsControlerListener
2019-06-11 15:17:19,785  INFO ModeStatsControlerListener:155 -- mode share of mode bike = 0.0
2019-06-11 15:17:19,785  INFO ModeStatsControlerListener:155 -- mode share of mode car = 1.0
2019-06-11 15:17:19,785  INFO ModeStatsControlerListener:155 -- mode share of mode other = 0.0
2019-06-11 15:17:19,785  INFO ModeStatsControlerListener:155 -- mode share of mode pt = 0.0
2019-06-11 15:17:19,785  INFO ModeStatsControlerListener:155 -- mode share of mode ride = 0.0
2019-06-11 15:17:19,785  INFO ModeStatsControlerListener:155 -- mode share of mode walk = 0.0
2019-06-11 15:17:19,935  INFO ControlerListenerManagerImpl:167 calling notifyIterationEnds on org.matsim.analysis.ScoreStatsControlerListener
2019-06-11 15:17:19,936  INFO ScoreStatsControlerListener:191 -- avg. score of the executed plan of each agent: 64.84180132563583
2019-06-11 15:17:19,936  INFO ScoreStatsControlerListener:192 -- avg. score of the worst plan of each agent: 64.78366379257605
2019-06-11 15:17:19,936  INFO ScoreStatsControlerListener:193 -- avg. of the avg. plan score per agent: 64.81273255910591
2019-06-11 15:17:19,936  INFO ScoreStatsControlerListener:194 -- avg. score of the best plan of each agent: 64.84180132563583
2019-06-11 15:17:20,064  INFO ControlerListenerManagerImpl:167 calling notifyIterationEnds on org.matsim.analysis.TravelDistanceStatsControlerListener
2019-06-11 15:17:20,065  INFO TravelDistanceStats:128 [TravelDistanceStats] using 2 thread(s).
2019-06-11 15:17:20,066  INFO TravelDistanceStats:141 [TravelDistanceStats] all threads finished.
2019-06-11 15:17:20,066  INFO TravelDistanceStats:161 -- average of the average leg distance per plan (executed plans only): 44850.0
2019-06-11 15:17:20,067  INFO TravelDistanceStats:162 (TravelDistanceStats takes an average over all legs where the simulation reports travelled distances. These are car legs, pt legs,
2019-06-11 15:17:20,067  INFO TravelDistanceStats:163 (and teleported legs whose route contains a distance.)
2019-06-11 15:17:20,213  INFO ControlerListenerManagerImpl:167 calling notifyIterationEnds on org.matsim.analysis.LegHistogramListener
2019-06-11 15:17:20,215  INFO LegHistogramListener:72 number of legs:	201	100%
2019-06-11 15:17:20,215  INFO LegHistogramListener:79 number of car legs:	201	100.0%
2019-06-11 15:17:20,607  INFO ControlerListenerManagerImpl:167 calling notifyIterationEnds on org.matsim.analysis.LinkStatsControlerListener
2019-06-11 15:17:20,608  INFO ControlerListenerManagerImpl:171 [it.1] all ControlerIterationEndsListeners called.
2019-06-11 15:17:20,722  INFO AbstractController:167 ### ITERATION 1 ENDS
2019-06-11 15:17:20,722  INFO AbstractController:168 ###################################################
2019-06-11 15:17:20,723  INFO AbstractController:123 ###################################################
2019-06-11 15:17:20,723  INFO AbstractController:124 ### ITERATION 2 BEGINS
2019-06-11 15:17:20,723  INFO ControlerListenerManagerImpl:145 calling notifyIterationStarts on org.matsim.analysis.LegHistogramListener
2019-06-11 15:17:20,723  INFO ControlerListenerManagerImpl:145 calling notifyIterationStarts on org.matsim.analysis.LinkStatsControlerListener
2019-06-11 15:17:20,723  INFO ControlerListenerManagerImpl:145 calling notifyIterationStarts on org.matsim.core.replanning.ReplanningContextImpl
2019-06-11 15:17:20,723  INFO ControlerListenerManagerImpl:145 calling notifyIterationStarts on org.matsim.core.scoring.ExperiencedPlansServiceImpl$1
2019-06-11 15:17:20,723  INFO ControlerListenerManagerImpl:145 calling notifyIterationStarts on org.matsim.core.scoring.ScoringFunctionsForPopulation$1
2019-06-11 15:17:20,723  INFO ControlerListenerManagerImpl:148 [it.2] all ControlerIterationStartsListeners called.
2019-06-11 15:17:20,724  INFO ControlerListenerManagerImpl:205 calling notifyReplanning on org.matsim.core.controler.corelisteners.PlansReplanningImpl
2019-06-11 15:17:20,724 DEBUG NetworkRoutingProvider:75 requesting network routing module with routingMode=car;	mode=car
2019-06-11 15:17:20,724 DEBUG NetworkRoutingProvider:75 requesting network routing module with routingMode=car;	mode=car
2019-06-11 15:17:20,725  INFO GenericPlanStrategyImpl:125 Plan-Strategy finished, 89 plans handled. Strategy: BestPlanSelector
2019-06-11 15:17:20,725  INFO AbstractMultithreadedModule:141 [PlanRouter] starting 2 threads, handling 11 plans
2019-06-11 15:17:20,726  INFO Counter:70 [PlanRouter] handled plan # 1
2019-06-11 15:17:20,727  INFO Counter:70 [PlanRouter] handled plan # 2
2019-06-11 15:17:20,727  INFO Counter:70 [PlanRouter] handled plan # 4
2019-06-11 15:17:20,728  INFO Counter:70 [PlanRouter] handled plan # 8
2019-06-11 15:17:20,729  INFO AbstractMultithreadedModule:156 [PlanRouter] all 2 threads finished.
2019-06-11 15:17:20,729  INFO GenericPlanStrategyImpl:125 Plan-Strategy finished, 11 plans handled. Strategy: RandomPlanSelector_ReRoute
2019-06-11 15:17:20,730  INFO ControlerListenerManagerImpl:213 [it.2] all ControlerReplanningListeners called.
2019-06-11 15:17:20,730  INFO ControlerListenerManagerImpl:224 calling notifyBeforeMobsim on org.matsim.core.controler.corelisteners.EventsHandlingImpl
2019-06-11 15:17:20,730  INFO EventsManagerImpl:170 resetting Event-Handlers
2019-06-11 15:17:20,730  INFO EventsManagerImpl:177   org.matsim.core.trafficmonitoring.TravelTimeCalculator
2019-06-11 15:17:20,730  INFO EventsManagerImpl:177   org.matsim.core.scoring.EventsToLegsAndActivities
2019-06-11 15:17:20,730  INFO EventsManagerImpl:177   org.matsim.analysis.VolumesAnalyzer
2019-06-11 15:17:20,730  INFO EventsManagerImpl:177   org.matsim.core.events.algorithms.Vehicle2DriverEventHandler
2019-06-11 15:17:20,731  INFO EventsManagerImpl:177   org.matsim.core.scoring.ScoringFunctionsForPopulation
2019-06-11 15:17:20,731  INFO EventsManagerImpl:177   org.matsim.analysis.LegHistogram
[...]
2019-06-11 15:17:33,160  INFO EventsManagerImpl:177   org.matsim.analysis.CalcLegTimes
2019-06-11 15:17:33,161  INFO EventsManagerImpl:144 adding Event-Handler: org.matsim.core.events.algorithms.EventWriterXML
2019-06-11 15:17:33,161  INFO EventsManagerImpl:148   org.matsim.core.events.algorithms.EventWriter
2019-06-11 15:17:33,161  INFO EventsManagerImpl:148   org.matsim.core.events.handler.BasicEventHandler
2019-06-11 15:17:33,161  INFO EventsManagerImpl:207     > org.matsim.api.core.v01.events.Event
2019-06-11 15:17:33,161  INFO EventsManagerImpl:156 
2019-06-11 15:17:33,161  INFO EventsManagerImpl:144 adding Event-Handler: org.matsim.core.events.algorithms.EventWriterXML
2019-06-11 15:17:33,162  INFO EventsManagerImpl:148   org.matsim.core.events.algorithms.EventWriter
2019-06-11 15:17:33,162  INFO EventsManagerImpl:148   org.matsim.core.events.handler.BasicEventHandler
2019-06-11 15:17:33,162  INFO EventsManagerImpl:207     > org.matsim.api.core.v01.events.Event
2019-06-11 15:17:33,162  INFO EventsManagerImpl:156 
2019-06-11 15:17:33,162  INFO ControlerListenerManagerImpl:224 calling notifyBeforeMobsim on org.matsim.core.controler.corelisteners.PlansDumpingImpl
2019-06-11 15:17:33,162  INFO PlansDumpingImpl:76 dumping plans...
2019-06-11 15:17:33,163  INFO Counter:70 [PopulationWriter] dumped person # 1
2019-06-11 15:17:33,164  INFO Counter:70 [PopulationWriter] dumped person # 2
2019-06-11 15:17:33,164  INFO Counter:70 [PopulationWriter] dumped person # 4
2019-06-11 15:17:33,164  INFO Counter:70 [PopulationWriter] dumped person # 8
2019-06-11 15:17:33,165  INFO Counter:70 [PopulationWriter] dumped person # 16
2019-06-11 15:17:33,165  INFO Counter:70 [PopulationWriter] dumped person # 32
2019-06-11 15:17:33,167  INFO Counter:70 [PopulationWriter] dumped person # 64
2019-06-11 15:17:33,169  INFO PopulationWriter:139 Population written to: ./scenarios/equil/output/ITERS/it.10/10.plans.xml.gz
2019-06-11 15:17:33,170  INFO Counter:76 [PopulationWriter] dumped person # 100
2019-06-11 15:17:33,170  INFO PlansDumpingImpl:93 finished plans dump.
2019-06-11 15:17:33,170  INFO ControlerListenerManagerImpl:229 calling notifyBeforeMobsim on org.matsim.core.population.VspPlansCleaner
2019-06-11 15:17:33,170  INFO ControlerListenerManagerImpl:232 [it.10] all ControlerBeforeMobsimListeners called.
2019-06-11 15:17:33,170 DEBUG NetworkRoutingProvider:75 requesting network routing module with routingMode=car;	mode=car
2019-06-11 15:17:33,171 DEBUG NetworkRoutingProvider:75 requesting network routing module with routingMode=car;	mode=car
2019-06-11 15:17:33,171  INFO Counter:70 [PersonPrepareForSim] handled person # 1
2019-06-11 15:17:33,171  INFO Counter:70 [PersonPrepareForSim] handled person # 2
2019-06-11 15:17:33,171  INFO Counter:70 [PersonPrepareForSim] handled person # 4
2019-06-11 15:17:33,171  INFO Counter:70 [PersonPrepareForSim] handled person # 8
2019-06-11 15:17:33,172  INFO Counter:70 [PersonPrepareForSim] handled person # 16
2019-06-11 15:17:33,172  INFO Counter:70 [PersonPrepareForSim] handled person # 32
2019-06-11 15:17:33,172  INFO Counter:70 [PersonPrepareForSim] handled person # 64
2019-06-11 15:17:33,172  INFO Counter:76 [PersonPrepareForSim] handled person # 100
2019-06-11 15:17:33,182  INFO MobsimListenerManager:49 calling addQueueSimulationListener
2019-06-11 15:17:33,182  INFO MobsimListenerManager:53   assigned class org.matsim.core.mobsim.framework.listeners.MobsimListener to interface org.matsim.core.mobsim.framework.listeners.MobsimBeforeCleanupListener
2019-06-11 15:17:33,182  INFO MobsimListenerManager:53   assigned class org.matsim.core.mobsim.framework.listeners.MobsimListener to interface org.matsim.core.mobsim.framework.listeners.MobsimInitializedListener
2019-06-11 15:17:33,182  INFO MobsimListenerManager:53   assigned class org.matsim.core.mobsim.framework.listeners.MobsimListener to interface org.matsim.vis.snapshotwriters.SnapshotWriterManager
2019-06-11 15:17:33,183  INFO MobsimListenerManager:53   assigned class org.matsim.core.mobsim.framework.listeners.MobsimListener to interface org.matsim.core.mobsim.framework.listeners.MobsimAfterSimStepListener
2019-06-11 15:17:33,183  INFO MobsimListenerManager:53   assigned class org.matsim.core.mobsim.framework.listeners.MobsimListener to interface org.matsim.core.mobsim.framework.listeners.MobsimListener
2019-06-11 15:17:33,183  INFO QSimProvider:111 Added MobsimEngine class org.matsim.core.mobsim.qsim.ActivityEngine
2019-06-11 15:17:33,183  INFO QSimProvider:117 Added Activityhandler class org.matsim.core.mobsim.qsim.ActivityEngine
2019-06-11 15:17:33,183  INFO QSimProvider:123 Added DepartureHandler class org.matsim.core.mobsim.qsim.qnetsimengine.VehicularDepartureHandler
2019-06-11 15:17:33,184  INFO QSimProvider:111 Added MobsimEngine class org.matsim.core.mobsim.qsim.qnetsimengine.QNetsimEngine
2019-06-11 15:17:33,184  INFO QSimProvider:111 Added MobsimEngine class org.matsim.core.mobsim.qsim.DefaultTeleportationEngine
2019-06-11 15:17:33,184  INFO QSimProvider:123 Added DepartureHandler class org.matsim.core.mobsim.qsim.DefaultTeleportationEngine
2019-06-11 15:17:33,184  INFO QSimProvider:129 Added AgentSource class org.matsim.core.mobsim.qsim.agents.PopulationAgentSource
2019-06-11 15:17:33,184  INFO MobsimListenerManager:49 calling addQueueSimulationListener
2019-06-11 15:17:33,184  INFO MobsimListenerManager:53   assigned class org.matsim.core.mobsim.framework.listeners.MobsimListener to interface org.matsim.core.mobsim.framework.listeners.MobsimBeforeSimStepListener
2019-06-11 15:17:33,184  INFO MobsimListenerManager:53   assigned class org.matsim.core.mobsim.framework.listeners.MobsimListener to interface org.matsim.core.mobsim.qsim.messagequeueengine.MessageQueueEngine
2019-06-11 15:17:33,184  INFO MobsimListenerManager:53   assigned class org.matsim.core.mobsim.framework.listeners.MobsimListener to interface org.matsim.core.mobsim.framework.listeners.MobsimListener
2019-06-11 15:17:33,184  INFO QSimProvider:135 Added MobsimListener class org.matsim.core.mobsim.qsim.messagequeueengine.MessageQueueEngine
2019-06-11 15:17:33,185  INFO QNetsimEngine:506 Assigned 15 nodes and 23 links to QSimEngineRunner #0
2019-06-11 15:17:33,185  INFO QNetsimEngine:346 SIMULATION (QNetsimEngine) AT 05:58:30 : #links=0 #nodes=1
2019-06-11 15:17:33,185  INFO QSim:505 SIMULATION (NEW QSim) AT 05:58:30 : #Veh=100 lost=0 simT=0.0s realT=0s; (s/r): 0.0
2019-06-11 15:17:33,185  INFO Gbl:58 used RAM: 127408984B = 124422kB = 121MB  free: 186115240B = 177MB  total: 313524224B = 299MB
2019-06-11 15:17:33,189  INFO QNetsimEngine:346 SIMULATION (QNetsimEngine) AT 06:00:00 : #links=2 #nodes=1
2019-06-11 15:17:33,190  INFO QSim:505 SIMULATION (NEW QSim) AT 06:00:00 : #Veh=100 lost=0 simT=90.0s realT=0s; (s/r): Infinity
2019-06-11 15:17:33,190  INFO Gbl:58 used RAM: 127408984B = 124422kB = 121MB  free: 186115240B = 177MB  total: 313524224B = 299MB
2019-06-11 15:17:33,335  INFO QNetsimEngine:346 SIMULATION (QNetsimEngine) AT 07:00:00 : #links=1 #nodes=0
2019-06-11 15:17:33,335  INFO QSim:505 SIMULATION (NEW QSim) AT 07:00:00 : #Veh=100 lost=0 simT=3690.0s realT=0s; (s/r): Infinity
2019-06-11 15:17:33,335  INFO Gbl:58 used RAM: 128417752B = 125407kB = 122MB  free: 185106472B = 176MB  total: 313524224B = 299MB
2019-06-11 15:17:33,464  INFO QNetsimEngine:346 SIMULATION (QNetsimEngine) AT 08:00:00 : #links=1 #nodes=0
2019-06-11 15:17:33,464  INFO QSim:505 SIMULATION (NEW QSim) AT 08:00:00 : #Veh=5 lost=0 simT=7290.0s realT=0s; (s/r): Infinity
2019-06-11 15:17:33,464  INFO Gbl:58 used RAM: 129426520B = 126393kB = 123MB  free: 184097704B = 175MB  total: 313524224B = 299MB
2019-06-11 15:17:33,582  INFO QNetsimEngine:346 SIMULATION (QNetsimEngine) AT 09:00:00 : #links=1 #nodes=0
2019-06-11 15:17:33,582  INFO QSim:505 SIMULATION (NEW QSim) AT 09:00:00 : #Veh=4 lost=0 simT=10890.0s realT=0s; (s/r): Infinity
2019-06-11 15:17:33,582  INFO Gbl:58 used RAM: 134856744B = 131696kB = 128MB  free: 178667480B = 170MB  total: 313524224B = 299MB
2019-06-11 15:17:33,705  INFO QNetsimEngine:346 SIMULATION (QNetsimEngine) AT 10:00:00 : #links=1 #nodes=0
2019-06-11 15:17:33,705  INFO QSim:505 SIMULATION (NEW QSim) AT 10:00:00 : #Veh=2 lost=0 simT=14490.0s realT=0s; (s/r): Infinity
2019-06-11 15:17:33,705  INFO Gbl:58 used RAM: 134856744B = 131696kB = 128MB  free: 178667480B = 170MB  total: 313524224B = 299MB
2019-06-11 15:17:33,828  INFO QNetsimEngine:346 SIMULATION (QNetsimEngine) AT 11:00:00 : #links=0 #nodes=0
2019-06-11 15:17:33,828  INFO QSim:505 SIMULATION (NEW QSim) AT 11:00:00 : #Veh=1 lost=0 simT=18090.0s realT=0s; (s/r): Infinity
2019-06-11 15:17:33,828  INFO Gbl:58 used RAM: 134856744B = 131696kB = 128MB  free: 178667480B = 170MB  total: 313524224B = 299MB
2019-06-11 15:17:33,950  INFO QNetsimEngine:346 SIMULATION (QNetsimEngine) AT 12:00:00 : #links=0 #nodes=0
2019-06-11 15:17:33,950  INFO QSim:505 SIMULATION (NEW QSim) AT 12:00:00 : #Veh=1 lost=0 simT=21690.0s realT=0s; (s/r): Infinity
2019-06-11 15:17:33,950  INFO Gbl:58 used RAM: 140286960B = 136998kB = 133MB  free: 173237264B = 165MB  total: 313524224B = 299MB
2019-06-11 15:17:34,074  INFO QNetsimEngine:346 SIMULATION (QNetsimEngine) AT 13:00:00 : #links=1 #nodes=0
2019-06-11 15:17:34,075  INFO QSim:505 SIMULATION (NEW QSim) AT 13:00:00 : #Veh=1 lost=0 simT=25290.0s realT=0s; (s/r): Infinity
2019-06-11 15:17:34,075  INFO Gbl:58 used RAM: 140286960B = 136998kB = 133MB  free: 173237264B = 165MB  total: 313524224B = 299MB
2019-06-11 15:17:34,132  INFO AbstractController$9:220 ### ITERATION 10 fires after mobsim event
2019-06-11 15:17:34,132  INFO ControlerListenerManagerImpl:248 calling notifyAfterMobsim on org.matsim.analysis.LegTimesControlerListener
2019-06-11 15:17:34,132  INFO Gbl:191 Thread performance: Thread=class org.matsim.core.events.SimStepParallelEventsManagerImpl$ProcessEventsRunnable0  cpu-time=0.192811sec
2019-06-11 15:17:34,132  INFO LegTimesControlerListener:50 [10] average trip (probably: leg) duration is: 1628 seconds = 00:27:08
2019-06-11 15:17:34,132  INFO ControlerListenerManagerImpl:248 calling notifyAfterMobsim on org.matsim.core.scoring.EventsToActivities$1
2019-06-11 15:17:34,133  INFO ControlerListenerManagerImpl:251 [it.10] all ControlerAfterMobsimListeners called.
2019-06-11 15:17:34,133  INFO AbstractController$4:149 ### ITERATION 10 fires scoring event
2019-06-11 15:17:34,133  INFO ControlerListenerManagerImpl:183 calling notifyScoring on org.matsim.core.scoring.PlansScoringImpl
2019-06-11 15:17:34,133  INFO NewScoreAssignerImpl:36 it: 10 msaStart: null
2019-06-11 15:17:34,133  INFO ControlerListenerManagerImpl:194 [it.10] all ControlerScoringListeners called.
2019-06-11 15:17:34,133  INFO AbstractController$5:157 ### ITERATION 10 fires iteration end event
2019-06-11 15:17:34,134  INFO ControlerListenerManagerImpl:160 calling notifyIterationEnds on org.matsim.core.controler.corelisteners.EventsHandlingImpl
2019-06-11 15:17:34,135  INFO EventsManagerImpl:161 removing Event-Handler: org.matsim.core.events.algorithms.EventWriterXML
2019-06-11 15:17:34,135  INFO EventsManagerImpl:161 removing Event-Handler: org.matsim.core.events.algorithms.EventWriterXML
2019-06-11 15:17:34,135  INFO ControlerListenerManagerImpl:160 calling notifyIterationEnds on org.matsim.core.scoring.PlansScoringImpl
2019-06-11 15:17:34,135  INFO ControlerListenerManagerImpl:167 calling notifyIterationEnds on org.matsim.counts.CountsControlerListener
2019-06-11 15:17:34,139  INFO CountSimComparisonTableWriter:93 Writing CountsSimComparison to ./scenarios/equil/output/ITERS/it.10/10.countscompare.txt
2019-06-11 15:17:34,139  INFO CountSimComparisonTableWriter:134 Writing 'average weekday traffic volume' to ./scenarios/equil/output/ITERS/it.10/10.countscompareAWTV.txt
2019-06-11 15:17:34,141  INFO ControlerListenerManagerImpl:167 calling notifyIterationEnds on org.matsim.analysis.ModeStatsControlerListener
2019-06-11 15:17:34,141  INFO ModeStatsControlerListener:155 -- mode share of mode bike = 0.0
2019-06-11 15:17:34,141  INFO ModeStatsControlerListener:155 -- mode share of mode car = 1.0
2019-06-11 15:17:34,141  INFO ModeStatsControlerListener:155 -- mode share of mode other = 0.0
2019-06-11 15:17:34,141  INFO ModeStatsControlerListener:155 -- mode share of mode pt = 0.0
2019-06-11 15:17:34,141  INFO ModeStatsControlerListener:155 -- mode share of mode ride = 0.0
2019-06-11 15:17:34,141  INFO ModeStatsControlerListener:155 -- mode share of mode walk = 0.0
2019-06-11 15:17:34,198  INFO ControlerListenerManagerImpl:167 calling notifyIterationEnds on org.matsim.analysis.ScoreStatsControlerListener
2019-06-11 15:17:34,198  INFO ScoreStatsControlerListener:191 -- avg. score of the executed plan of each agent: 65.0866398879971
2019-06-11 15:17:34,198  INFO ScoreStatsControlerListener:192 -- avg. score of the worst plan of each agent: 64.91592263882357
2019-06-11 15:17:34,198  INFO ScoreStatsControlerListener:193 -- avg. of the avg. plan score per agent: 65.01554492675089
2019-06-11 15:17:34,198  INFO ScoreStatsControlerListener:194 -- avg. score of the best plan of each agent: 65.09045249606102
2019-06-11 15:17:34,247  INFO ControlerListenerManagerImpl:167 calling notifyIterationEnds on org.matsim.analysis.TravelDistanceStatsControlerListener
2019-06-11 15:17:34,247  INFO TravelDistanceStats:128 [TravelDistanceStats] using 2 thread(s).
2019-06-11 15:17:34,247  INFO TravelDistanceStats:141 [TravelDistanceStats] all threads finished.
2019-06-11 15:17:34,247  INFO TravelDistanceStats:161 -- average of the average leg distance per plan (executed plans only): 44850.0
2019-06-11 15:17:34,248  INFO TravelDistanceStats:162 (TravelDistanceStats takes an average over all legs where the simulation reports travelled distances. These are car legs, pt legs,
2019-06-11 15:17:34,248  INFO TravelDistanceStats:163 (and teleported legs whose route contains a distance.)
2019-06-11 15:17:34,310  INFO ControlerListenerManagerImpl:167 calling notifyIterationEnds on org.matsim.analysis.LegHistogramListener
2019-06-11 15:17:34,311  INFO LegHistogramListener:72 number of legs:	201	100%
2019-06-11 15:17:34,311  INFO LegHistogramListener:79 number of car legs:	201	100.0%
2019-06-11 15:17:34,476  INFO ControlerListenerManagerImpl:167 calling notifyIterationEnds on org.matsim.analysis.LinkStatsControlerListener
2019-06-11 15:17:34,481  INFO ControlerListenerManagerImpl:171 [it.10] all ControlerIterationEndsListeners called.
2019-06-11 15:17:34,559  INFO AbstractController:167 ### ITERATION 10 ENDS
2019-06-11 15:17:34,560  INFO AbstractController:168 ###################################################
2019-06-11 15:17:34,560  INFO MatsimRuntimeModifications:58 S H U T D O W N   ---   start shutdown.
2019-06-11 15:17:34,560  INFO ControlerListenerManagerImpl:121 calling notifyShutdown on org.matsim.core.controler.corelisteners.EventsHandlingImpl
2019-06-11 15:17:34,560  INFO ControlerListenerManagerImpl:121 calling notifyShutdown on org.matsim.core.controler.corelisteners.DumpDataAtEndImpl
2019-06-11 15:17:34,561  INFO Counter:70 [PopulationWriter] dumped person # 1
2019-06-11 15:17:34,561  INFO Counter:70 [PopulationWriter] dumped person # 2
2019-06-11 15:17:34,561  INFO Counter:70 [PopulationWriter] dumped person # 4
2019-06-11 15:17:34,561  INFO Counter:70 [PopulationWriter] dumped person # 8
2019-06-11 15:17:34,561  INFO Counter:70 [PopulationWriter] dumped person # 16
2019-06-11 15:17:34,562  INFO Counter:70 [PopulationWriter] dumped person # 32
2019-06-11 15:17:34,563  INFO Counter:70 [PopulationWriter] dumped person # 64
2019-06-11 15:17:34,564  INFO PopulationWriter:139 Population written to: ./scenarios/equil/output/output_plans.xml.gz
2019-06-11 15:17:34,565  INFO Counter:76 [PopulationWriter] dumped person # 100
2019-06-11 15:17:34,567  INFO NetworkWriter:69 Writing network to file: ./scenarios/equil/output/output_network.xml.gz...
2019-06-11 15:17:34,568  INFO NetworkWriter:72 done.
2019-06-11 15:17:34,574  INFO Config:572 setting context to [file:/Users/xenon/Downloads/matsim-example-project/]
2019-06-11 15:17:34,578  INFO Config:572 setting context to [file:/Users/xenon/Downloads/matsim-example-project/]
2019-06-11 15:17:34,582  INFO Config:572 setting context to [file:/Users/xenon/Downloads/matsim-example-project/]
2019-06-11 15:17:34,585  INFO Config:572 setting context to [file:/Users/xenon/Downloads/matsim-example-project/]
2019-06-11 15:17:34,592  INFO Config:572 setting context to [file:/Users/xenon/Downloads/matsim-example-project/]
2019-06-11 15:17:34,596  INFO Config:572 setting context to [file:/Users/xenon/Downloads/matsim-example-project/]
2019-06-11 15:17:34,599  INFO Config:572 setting context to [file:/Users/xenon/Downloads/matsim-example-project/]
2019-06-11 15:17:34,601  INFO Config:572 setting context to [file:/Users/xenon/Downloads/matsim-example-project/]
2019-06-11 15:17:34,604  INFO Config:572 setting context to [file:/Users/xenon/Downloads/matsim-example-project/]
2019-06-11 15:17:34,607  INFO Config:572 setting context to [file:/Users/xenon/Downloads/matsim-example-project/]
2019-06-11 15:17:34,609  INFO Config:572 setting context to [file:/Users/xenon/Downloads/matsim-example-project/]
2019-06-11 15:17:34,614  INFO Config:572 setting context to [file:/Users/xenon/Downloads/matsim-example-project/]
2019-06-11 15:17:34,620  INFO Config:572 setting context to [file:/Users/xenon/Downloads/matsim-example-project/]
2019-06-11 15:17:34,622  INFO Config:572 setting context to [file:/Users/xenon/Downloads/matsim-example-project/]
2019-06-11 15:17:34,626  INFO Config:572 setting context to [file:/Users/xenon/Downloads/matsim-example-project/]
2019-06-11 15:17:34,629  INFO Config:572 setting context to [file:/Users/xenon/Downloads/matsim-example-project/]
2019-06-11 15:17:34,639  INFO Config:572 setting context to [file:/Users/xenon/Downloads/matsim-example-project/]
2019-06-11 15:17:34,642  INFO Config:572 setting context to [file:/Users/xenon/Downloads/matsim-example-project/]
2019-06-11 15:17:34,646  INFO Config:572 setting context to [file:/Users/xenon/Downloads/matsim-example-project/]
2019-06-11 15:17:34,648  INFO Config:572 setting context to [file:/Users/xenon/Downloads/matsim-example-project/]
2019-06-11 15:17:34,650  INFO Config:572 setting context to [file:/Users/xenon/Downloads/matsim-example-project/]
2019-06-11 15:17:34,653  INFO Config:572 setting context to [file:/Users/xenon/Downloads/matsim-example-project/]
2019-06-11 15:17:34,655  INFO Config:572 setting context to [file:/Users/xenon/Downloads/matsim-example-project/]
2019-06-11 15:17:34,657  INFO Config:572 setting context to [file:/Users/xenon/Downloads/matsim-example-project/]
2019-06-11 15:17:34,661  INFO VehicleWriterV1:52 about to write vehicles to: ./scenarios/equil/output/output_vehicles.xml.gz
2019-06-11 15:17:34,663  INFO HouseholdsWriterV10:66 about to write  households to: ./scenarios/equil/output/output_households.xml.gz
2019-06-11 15:17:34,664  INFO Counter:76 [HouseholdsWriter] wrote household # 0
2019-06-11 15:17:34,666  INFO LanesWriter:72 about to write lanes to: ./scenarios/equil/output/output_lanes.xml.gz
2019-06-11 15:17:34,784  INFO ControlerListenerManagerImpl:126 calling notifyShutdown on org.matsim.analysis.ModeStatsControlerListener
2019-06-11 15:17:34,784  INFO ControlerListenerManagerImpl:126 calling notifyShutdown on org.matsim.analysis.ScoreStatsControlerListener
2019-06-11 15:17:34,784  INFO ControlerListenerManagerImpl:126 calling notifyShutdown on org.matsim.analysis.TravelDistanceStatsControlerListener
2019-06-11 15:17:34,784  INFO ControlerListenerManagerImpl:129 all ControlerShutdownListeners called.
2019-06-11 15:17:34,784  INFO MatsimRuntimeModifications:81 S H U T D O W N   ---   shutdown completed.
2019-06-11 15:17:34,784  INFO OutputDirectoryLogging:146 closing the logfile, i.e. messages sent to the logger after this message are not written to the logfile.
